<?xml version="1.0" encoding="UTF-8"?>
<!-- generated on 2022-02-25 16:36:32.938520 by route2trips.py UNKNOWN
  options: routes.rou.xml
-->
<routes xmlns:xsi="http://www.w3.org/2001/XMLSchema-instance" xsi:noNamespaceSchemaLocation="http://sumo.dlr.de/xsd/routes_file.xsd">
    <vType id="car_5__passenger" vClass="passenger">
    </vType>
    <trip id="car_5_0" depart="75600.00" from="25187893" to="28319300#0" type="car_5__passenger"/>
    <trip id="car_5_1" depart="75600.65" from="124812857#0" to="-26642363" type="car_5__passenger"/>
    <trip id="car_5_2" depart="75601.30" from="-104010328" to="24634411" type="car_5__passenger"/>
    <trip id="car_5_4" depart="75602.61" from="-32395352#1" to="25209894#1" type="car_5__passenger"/>
    <trip id="car_5_5" depart="75603.26" from="-25187896" to="26678225" type="car_5__passenger"/>
    <trip id="car_5_6" depart="75603.91" from="24634508" to="-653473569#1" type="car_5__passenger"/>
    <trip id="car_5_7" depart="75604.56" from="160314351#1" to="24634506#0" type="car_5__passenger"/>
    <trip id="car_5_8" depart="75605.21" from="-24634509#0" to="201238724" type="car_5__passenger"/>
    <trip id="car_5_9" depart="75605.86" from="26642362#0" to="-266565295#5" type="car_5__passenger"/>
    <trip id="car_5_10" depart="75606.52" from="25209894#0" to="24634508" type="car_5__passenger"/>
    <trip id="car_5_11" depart="75607.17" from="26677417#0" to="-315358251#0" type="car_5__passenger"/>
    <trip id="car_5_12" depart="75607.82" from="-201950247#0" to="26678225" type="car_5__passenger"/>
    <trip id="car_5_14" depart="75609.12" from="-201950247#0" to="-24634517#17" type="car_5__passenger"/>
    <trip id="car_5_15" depart="75609.77" from="201956821#0" to="-26677416#7" type="car_5__passenger"/>
    <trip id="car_5_16" depart="75610.43" from="386687232#0" to="201956811#0" type="car_5__passenger"/>
    <trip id="car_5_17" depart="75611.08" from="-24634510#8" to="23525483#0" type="car_5__passenger"/>
    <trip id="car_5_18" depart="75611.73" from="-31860333#3" to="40888351#1" type="car_5__passenger"/>
    <trip id="car_5_19" depart="75612.38" from="315358254#0" to="18809672#2" type="car_5__passenger"/>
    <trip id="car_5_20" depart="75613.03" from="201963533#1" to="24634511" type="car_5__passenger"/>
    <trip id="car_5_21" depart="75613.68" from="26642362#0" to="51857517#1" type="car_5__passenger"/>
    <trip id="car_5_22" depart="75614.34" from="-137454133#5" to="-32395414#0" type="car_5__passenger"/>
    <trip id="car_5_23" depart="75614.99" from="201201953#4" to="-28111977#2" type="car_5__passenger"/>
    <trip id="car_5_24" depart="75615.64" from="201201945#3" to="-201950247#4" type="car_5__passenger"/>
    <trip id="car_5_26" depart="75616.94" from="-201963533#1.120" to="24634411" type="car_5__passenger"/>
    <trip id="car_5_27" depart="75617.59" from="-28111977#4" to="-24634517#16" type="car_5__passenger"/>
    <trip id="car_5_28" depart="75618.25" from="124812856#0" to="-22724699#1" type="car_5__passenger"/>
    <trip id="car_5_29" depart="75618.90" from="-24634514#1" to="31860333#4" type="car_5__passenger"/>
    <trip id="car_5_30" depart="75619.55" from="24599188#0.94" to="-128361102#1" type="car_5__passenger"/>
    <trip id="car_5_31" depart="75620.20" from="25145014#0" to="-129379920#0" type="car_5__passenger"/>
    <trip id="car_5_32" depart="75620.85" from="-306240162#1" to="36962701#1" type="car_5__passenger"/>
    <trip id="car_5_33" depart="75621.50" from="201950247#5" to="-28111977#4" type="car_5__passenger"/>
    <trip id="car_5_34" depart="75622.15" from="-32395352#1" to="-40888354#1" type="car_5__passenger"/>
    <trip id="car_5_35" depart="75622.81" from="-224892339#3" to="93386922" type="car_5__passenger"/>
    <trip id="car_5_36" depart="75623.46" from="-173169611#0" to="104010354" type="car_5__passenger"/>
    <trip id="car_5_37" depart="75624.11" from="24634517#17" to="-53396619#1" type="car_5__passenger"/>
    <trip id="car_5_38" depart="75624.76" from="53396619#1" to="-25187896" type="car_5__passenger"/>
    <trip id="car_5_39" depart="75625.41" from="53396619#1" to="32395414#1" type="car_5__passenger"/>
    <trip id="car_5_40" depart="75626.06" from="22716069#1" to="32395361#0" type="car_5__passenger"/>
    <trip id="car_5_41" depart="75626.72" from="-53396619#6" to="30482615#1" type="car_5__passenger"/>
    <trip id="car_5_42" depart="75627.37" from="25187896" to="18809672#6" type="car_5__passenger"/>
    <trip id="car_5_43" depart="75628.02" from="10425609#1" to="24634514#0" type="car_5__passenger"/>
    <trip id="car_5_44" depart="75628.67" from="-40888351#2" to="-201950247#3" type="car_5__passenger"/>
    <trip id="car_5_45" depart="75629.32" from="24634517#18" to="-266565295#5" type="car_5__passenger"/>
    <trip id="car_5_46" depart="75629.97" from="128361102#0" to="26677216#3" type="car_5__passenger"/>
    <trip id="car_5_47" depart="75630.63" from="-24634413#0" to="-129379925" type="car_5__passenger"/>
    <trip id="car_5_48" depart="75631.28" from="-224251774#0" to="201956819#0" type="car_5__passenger"/>
    <trip id="car_5_49" depart="75631.93" from="-31860333#4" to="-26642362#2" type="car_5__passenger"/>
    <trip id="car_5_50" depart="75632.58" from="-612075153#1" to="399835085#1" type="car_5__passenger"/>
    <trip id="car_5_51" depart="75633.23" from="-25145012#4" to="-653473568#0" type="car_5__passenger"/>
    <trip id="car_5_53" depart="75634.54" from="-25187892" to="137454133#2" type="car_5__passenger"/>
    <trip id="car_5_54" depart="75635.19" from="10427692#7" to="-22879845" type="car_5__passenger"/>
    <trip id="car_5_55" depart="75635.84" from="-32395352#1" to="-28111977#4" type="car_5__passenger"/>
    <trip id="car_5_56" depart="75636.49" from="25209894#1" to="-315358242#1" type="car_5__passenger"/>
    <trip id="car_5_57" depart="75637.14" from="224892339#0" to="4942376" type="car_5__passenger"/>
    <trip id="car_5_58" depart="75637.79" from="32124634" to="-379510292" type="car_5__passenger"/>
    <trip id="car_5_59" depart="75638.44" from="201238718#0" to="-31395281" type="car_5__passenger"/>
    <trip id="car_5_60" depart="75639.10" from="-37386279" to="160314346#1" type="car_5__passenger"/>
    <trip id="car_5_61" depart="75639.75" from="25187893" to="40888354#1" type="car_5__passenger"/>
    <trip id="car_5_63" depart="75641.05" from="-54169231#1" to="-173203413#7" type="car_5__passenger"/>
    <trip id="car_5_64" depart="75641.70" from="-137454133#5" to="26642362#2" type="car_5__passenger"/>
    <trip id="car_5_65" depart="75642.35" from="-201963522#5" to="24634517#9" type="car_5__passenger"/>
    <trip id="car_5_66" depart="75643.01" from="-32124743" to="40888356#0" type="car_5__passenger"/>
    <trip id="car_5_67" depart="75643.66" from="272042143" to="-18809672#6" type="car_5__passenger"/>
    <trip id="car_5_68" depart="75644.31" from="-24634508" to="40888443" type="car_5__passenger"/>
    <trip id="car_5_70" depart="75645.61" from="25145014#4" to="28111977#2" type="car_5__passenger"/>
    <trip id="car_5_71" depart="75646.26" from="128361109#1" to="137132998" type="car_5__passenger"/>
    <trip id="car_5_72" depart="75646.92" from="-201950250#0" to="-32395414#1" type="car_5__passenger"/>
    <trip id="car_5_73" depart="75647.57" from="-22716072#3" to="22690206#2" type="car_5__passenger"/>
    <trip id="car_5_74" depart="75648.22" from="201238724" to="-233675413#1" type="car_5__passenger"/>
    <trip id="car_5_75" depart="75648.87" from="201950259#0" to="-201950250#2" type="car_5__passenger"/>
    <trip id="car_5_76" depart="75649.52" from="-201950263#10" to="233675413#0" type="car_5__passenger"/>
    <trip id="car_5_77" depart="75650.17" from="-93386922" to="32999434#0" type="car_5__passenger"/>
    <trip id="car_5_78" depart="75650.83" from="201950259#4" to="24634513#6" type="car_5__passenger"/>
    <trip id="car_5_79" depart="75651.48" from="-224892339#3" to="30482615#1" type="car_5__passenger"/>
    <trip id="car_5_80" depart="75652.13" from="-201201945#8" to="224892361#3" type="car_5__passenger"/>
    <trip id="car_5_81" depart="75652.78" from="315358254#0" to="37386279" type="car_5__passenger"/>
    <trip id="car_5_82" depart="75653.43" from="315358244" to="129379922" type="car_5__passenger"/>
    <trip id="car_5_83" depart="75654.08" from="23436553#4" to="26677539" type="car_5__passenger"/>
    <trip id="car_5_84" depart="75654.74" from="-22690206#2" to="40888359" type="car_5__passenger"/>
    <trip id="car_5_85" depart="75655.39" from="315358254#0" to="124812856#0" type="car_5__passenger"/>
    <trip id="car_5_86" depart="75656.04" from="25145014#0" to="129379918#0" type="car_5__passenger"/>
    <trip id="car_5_87" depart="75656.69" from="-26642362#0" to="24634517#17" type="car_5__passenger"/>
    <trip id="car_5_88" depart="75657.34" from="-18809673#1.275" to="26678225" type="car_5__passenger"/>
    <trip id="car_5_89" depart="75657.99" from="53396619#1" to="-26677416#0" type="car_5__passenger"/>
    <trip id="car_5_90" depart="75658.64" from="37681424#1" to="-201238726#1" type="car_5__passenger"/>
    <trip id="car_5_91" depart="75659.30" from="27920078#0" to="-26677216#0" type="car_5__passenger"/>
    <trip id="car_5_92" depart="75659.95" from="40888354#1" to="10427692#2" type="car_5__passenger"/>
    <trip id="car_5_94" depart="75661.25" from="-201238718#1" to="28111977#5" type="car_5__passenger"/>
    <trip id="car_5_95" depart="75661.90" from="201963522#2" to="201201945#2" type="car_5__passenger"/>
    <trip id="car_5_96" depart="75662.55" from="-138300620#6" to="-24634414#4" type="car_5__passenger"/>
    <trip id="car_5_97" depart="75663.21" from="-32395327#1" to="-173177776#1" type="car_5__passenger"/>
    <trip id="car_5_98" depart="75663.86" from="653473568#0" to="25187895#0" type="car_5__passenger"/>
    <trip id="car_5_99" depart="75664.51" from="386687232#0" to="24634513#6" type="car_5__passenger"/>
    <trip id="car_5_100" depart="75665.16" from="-315358252#1" to="-201201945#8" type="car_5__passenger"/>
    <trip id="car_5_101" depart="75665.81" from="24634509#1" to="-201963533#5" type="car_5__passenger"/>
    <trip id="car_5_102" depart="75666.46" from="170018165#1" to="137132994#0" type="car_5__passenger"/>
    <trip id="car_5_103" depart="75667.12" from="128361109#1" to="-201201945#2" type="car_5__passenger"/>
    <trip id="car_5_104" depart="75667.77" from="-201089420#1" to="18809673#0" type="car_5__passenger"/>
    <trip id="car_5_105" depart="75668.42" from="-137454133#5" to="18813598#2" type="car_5__passenger"/>
    <trip id="car_5_106" depart="75669.07" from="-22724699#11" to="-26677216#2" type="car_5__passenger"/>
    <trip id="car_5_107" depart="75669.72" from="-22724699#2" to="201950247#1" type="car_5__passenger"/>
    <trip id="car_5_108" depart="75670.37" from="-32978638#0" to="-25145012#3" type="car_5__passenger"/>
    <trip id="car_5_109" depart="75671.03" from="-24634517#3" to="201238730" type="car_5__passenger"/>
    <trip id="car_5_110" depart="75671.68" from="315358254#0" to="-83304175#2" type="car_5__passenger"/>
    <trip id="car_5_112" depart="75672.98" from="-25117391#2" to="201950247#5" type="car_5__passenger"/>
    <trip id="car_5_113" depart="75673.63" from="25149001#4" to="201950247#1" type="car_5__passenger"/>
    <trip id="car_5_114" depart="75674.28" from="-24634506#0" to="-315358244" type="car_5__passenger"/>
    <trip id="car_5_115" depart="75674.93" from="-32395361#1" to="124812856#0" type="car_5__passenger"/>
    <trip id="car_5_116" depart="75675.59" from="-36962701#1" to="93386922" type="car_5__passenger"/>
    <trip id="car_5_117" depart="75676.24" from="172488482#0" to="24608846#1" type="car_5__passenger"/>
    <trip id="car_5_118" depart="75676.89" from="24634414#1" to="23166741#5" type="car_5__passenger"/>
    <trip id="car_5_119" depart="75677.54" from="26642362#0" to="-37681425#4" type="car_5__passenger"/>
    <trip id="car_5_120" depart="75678.19" from="22690205#3" to="4942389#1" type="car_5__passenger"/>
    <trip id="car_5_121" depart="75678.84" from="-23525483#0" to="22690206#2" type="car_5__passenger"/>
    <trip id="car_5_122" depart="75679.50" from="-32395414#1" to="-18809672#5" type="car_5__passenger"/>
    <trip id="car_5_124" depart="75680.80" from="-201963533#0" to="24634517#13" type="car_5__passenger"/>
    <trip id="car_5_125" depart="75681.45" from="-201950250#0" to="-37681424#0" type="car_5__passenger"/>
    <trip id="car_5_126" depart="75682.10" from="-137454133#5" to="201201950#4" type="car_5__passenger"/>
    <trip id="car_5_127" depart="75682.75" from="25149001#4" to="-25145012#6" type="car_5__passenger"/>
    <trip id="car_5_128" depart="75683.41" from="176550249#3" to="386687242" type="car_5__passenger"/>
    <trip id="car_5_129" depart="75684.06" from="-26677417#0" to="137133006#1" type="car_5__passenger"/>
    <trip id="car_5_130" depart="75684.71" from="24634417" to="31860333#2" type="car_5__passenger"/>
    <trip id="car_5_131" depart="75685.36" from="-24608845" to="24608846#1" type="car_5__passenger"/>
    <trip id="car_5_132" depart="75686.01" from="-201963533#5" to="-201963533#1.145" type="car_5__passenger"/>
    <trip id="car_5_133" depart="75686.66" from="53396619#2" to="-170018165#3" type="car_5__passenger"/>
    <trip id="car_5_134" depart="75687.32" from="31860333#3" to="25145012#6" type="car_5__passenger"/>
    <trip id="car_5_135" depart="75687.97" from="22724699#0" to="24634521#2" type="car_5__passenger"/>
    <trip id="car_5_136" depart="75688.62" from="202070434#2" to="-26677416#0" type="car_5__passenger"/>
    <trip id="car_5_138" depart="75689.92" from="27920078#1" to="26677214#3" type="car_5__passenger"/>
    <trip id="car_5_139" depart="75690.57" from="25149001#4" to="-25117391#2" type="car_5__passenger"/>
    <trip id="car_5_140" depart="75691.23" from="201201950#0" to="-26642362#0" type="car_5__passenger"/>
    <trip id="car_5_141" depart="75691.88" from="25187889" to="25145012#1" type="car_5__passenger"/>
    <trip id="car_5_142" depart="75692.53" from="653473569#0" to="24634516#1" type="car_5__passenger"/>
    <trip id="car_5_143" depart="75693.18" from="233675413#0" to="26677214#0" type="car_5__passenger"/>
    <trip id="car_5_144" depart="75693.83" from="-201950247#0" to="201963522#2" type="car_5__passenger"/>
    <trip id="car_5_145" depart="75694.48" from="-138300620#6" to="-37681424#0" type="car_5__passenger"/>
    <trip id="car_5_146" depart="75695.13" from="-201963533#1.120" to="40888443" type="car_5__passenger"/>
    <trip id="car_5_147" depart="75695.79" from="-137454133#5" to="386687239#1" type="car_5__passenger"/>
    <trip id="car_5_148" depart="75696.44" from="379897806" to="10427692#7" type="car_5__passenger"/>
    <trip id="car_5_149" depart="75697.09" from="26677216#2" to="-173177776#1" type="car_5__passenger"/>
    <trip id="car_5_150" depart="75697.74" from="-22690206#2" to="-120125554" type="car_5__passenger"/>
    <trip id="car_5_151" depart="75698.39" from="-18809673#6" to="-10427692#2" type="car_5__passenger"/>
    <trip id="car_5_152" depart="75699.04" from="26677214#4" to="-201950247#3" type="car_5__passenger"/>
    <trip id="car_5_153" depart="75699.70" from="201201945#7" to="-26676668" type="car_5__passenger"/>
    <trip id="car_5_154" depart="75700.35" from="-22690205#2" to="-83304175#2" type="car_5__passenger"/>
    <trip id="car_5_155" depart="75701.00" from="-24634415" to="51857518#1" type="car_5__passenger"/>
    <trip id="car_5_156" depart="75701.65" from="-32395414#1" to="201963522#0" type="car_5__passenger"/>
    <trip id="car_5_157" depart="75702.30" from="176550249#1" to="22690206#2" type="car_5__passenger"/>
    <trip id="car_5_158" depart="75702.95" from="10427692#8" to="-26676668" type="car_5__passenger"/>
    <trip id="car_5_159" depart="75703.61" from="-22690206#2" to="32395361#0" type="car_5__passenger"/>
    <trip id="car_5_160" depart="75704.26" from="-24634508" to="129379920#1" type="car_5__passenger"/>
    <trip id="car_5_161" depart="75704.91" from="26642362#3" to="201950250#0" type="car_5__passenger"/>
    <trip id="car_5_162" depart="75705.56" from="379897806" to="27920078#1" type="car_5__passenger"/>
    <trip id="car_5_163" depart="75706.21" from="136436468#0" to="-224251776#1" type="car_5__passenger"/>
    <trip id="car_5_164" depart="75706.86" from="201201950#0" to="137454133#2" type="car_5__passenger"/>
    <trip id="car_5_165" depart="75707.52" from="28111977#10" to="201143839" type="car_5__passenger"/>
    <trip id="car_5_166" depart="75708.17" from="23525483#0" to="28111977#1" type="car_5__passenger"/>
    <trip id="car_5_167" depart="75708.82" from="10425609#0" to="306431419" type="car_5__passenger"/>
    <trip id="car_5_168" depart="75709.47" from="315358248#0" to="-23525483#5" type="car_5__passenger"/>
    <trip id="car_5_170" depart="75710.77" from="272042143" to="-315358253#0" type="car_5__passenger"/>
    <trip id="car_5_171" depart="75711.42" from="-25145012#1" to="-22716069#2" type="car_5__passenger"/>
    <trip id="car_5_172" depart="75712.08" from="-32395327#1" to="315358253#0" type="car_5__passenger"/>
    <trip id="car_5_173" depart="75712.73" from="-32124744" to="-10427692#5" type="car_5__passenger"/>
    <trip id="car_5_174" depart="75713.38" from="-26678225" to="-201238726#0.98" type="car_5__passenger"/>
    <trip id="car_5_176" depart="75714.68" from="32124744" to="-201950247#3" type="car_5__passenger"/>
    <trip id="car_5_177" depart="75715.33" from="-32395361#1" to="-22690205#1" type="car_5__passenger"/>
    <trip id="car_5_178" depart="75715.99" from="315358254#0" to="306240162#0" type="car_5__passenger"/>
    <trip id="car_5_179" depart="75716.64" from="137132996" to="41203916#0" type="car_5__passenger"/>
    <trip id="car_5_180" depart="75717.29" from="137132997" to="26677213#0" type="car_5__passenger"/>
    <trip id="car_5_181" depart="75717.94" from="128361102#0" to="-32999434#1" type="car_5__passenger"/>
    <trip id="car_5_182" depart="75718.59" from="653473568#1" to="306431419" type="car_5__passenger"/>
    <trip id="car_5_184" depart="75719.90" from="201963537#1" to="26677542#1" type="car_5__passenger"/>
    <trip id="car_5_185" depart="75720.55" from="-18809673#6" to="-22716069#0" type="car_5__passenger"/>
    <trip id="car_5_186" depart="75721.20" from="-201963522#2" to="201963533#5" type="car_5__passenger"/>
    <trip id="car_5_187" depart="75721.85" from="24634414#4" to="-23525483#6" type="car_5__passenger"/>
    <trip id="car_5_188" depart="75722.50" from="129379925" to="-201963533#5" type="car_5__passenger"/>
    <trip id="car_5_189" depart="75723.15" from="233675413#3" to="26677214#4" type="car_5__passenger"/>
    <trip id="car_5_190" depart="75723.81" from="-201238724" to="53396619#4" type="car_5__passenger"/>
    <trip id="car_5_191" depart="75724.46" from="22690205#2" to="-224892361#8" type="car_5__passenger"/>
    <trip id="car_5_193" depart="75725.76" from="24634506#2" to="386687235" type="car_5__passenger"/>
    <trip id="car_5_194" depart="75726.41" from="-24634414#0" to="-24634510#0" type="car_5__passenger"/>
    <trip id="car_5_195" depart="75727.06" from="201950259#4" to="315358257#0.43" type="car_5__passenger"/>
    <trip id="car_5_196" depart="75727.72" from="24634513#0" to="137132992#0" type="car_5__passenger"/>
    <trip id="car_5_197" depart="75728.37" from="-201963522#3" to="224251776#0" type="car_5__passenger"/>
    <trip id="car_5_198" depart="75729.02" from="-653473569#1" to="272042145" type="car_5__passenger"/>
    <trip id="car_5_199" depart="75729.67" from="18813598#0" to="25117417#0" type="car_5__passenger"/>
    <trip id="car_5_200" depart="75730.32" from="4942389#0" to="22690206#2" type="car_5__passenger"/>
    <trip id="car_5_201" depart="75730.97" from="315358254#0" to="-26676668" type="car_5__passenger"/>
    <trip id="car_5_202" depart="75731.62" from="-10427692#1" to="32395352#0" type="car_5__passenger"/>
    <trip id="car_5_203" depart="75732.28" from="-137454133#5" to="653473569#3" type="car_5__passenger"/>
    <trip id="car_5_204" depart="75732.93" from="-653473569#1" to="-18809672#5" type="car_5__passenger"/>
    <trip id="car_5_205" depart="75733.58" from="-25209894#0" to="24634518#2" type="car_5__passenger"/>
    <trip id="car_5_206" depart="75734.23" from="-32395414#1" to="22690206#0" type="car_5__passenger"/>
    <trip id="car_5_207" depart="75734.88" from="-201950250#1" to="30482615#1" type="car_5__passenger"/>
    <trip id="car_5_208" depart="75735.53" from="-32395352#1" to="30482615#1" type="car_5__passenger"/>
    <trip id="car_5_209" depart="75736.19" from="-22716073" to="24634414#0" type="car_5__passenger"/>
    <trip id="car_5_210" depart="75736.84" from="104012170" to="-53396619#6" type="car_5__passenger"/>
    <trip id="car_5_211" depart="75737.49" from="-136728347#4" to="201143840" type="car_5__passenger"/>
    <trip id="car_5_212" depart="75738.14" from="26677416#0" to="-201963522#2" type="car_5__passenger"/>
    <trip id="car_5_213" depart="75738.79" from="-53396619#5" to="-128361102#1" type="car_5__passenger"/>
    <trip id="car_5_214" depart="75739.44" from="653473568#1" to="4942376" type="car_5__passenger"/>
    <trip id="car_5_215" depart="75740.10" from="22724699#3" to="138300620#0" type="car_5__passenger"/>
    <trip id="car_5_216" depart="75740.75" from="-18813598#1" to="-224892339#3" type="car_5__passenger"/>
    <trip id="car_5_217" depart="75741.40" from="24608844" to="26677540#2" type="car_5__passenger"/>
    <trip id="car_5_218" depart="75742.05" from="54169231#1" to="31860333#0" type="car_5__passenger"/>
    <trip id="car_5_219" depart="75742.70" from="-447569998#1" to="-26642362#1" type="car_5__passenger"/>
    <trip id="car_5_220" depart="75743.35" from="168702040#1" to="-315358255#4" type="car_5__passenger"/>
    <trip id="car_5_221" depart="75744.01" from="168702040#4" to="32395352#0" type="car_5__passenger"/>
    <trip id="car_5_222" depart="75744.66" from="-653473568#0" to="53396619#5" type="car_5__passenger"/>
    <trip id="car_5_223" depart="75745.31" from="24634414#3" to="-170018165#0" type="car_5__passenger"/>
    <trip id="car_5_224" depart="75745.96" from="24634517#18" to="24608846#1" type="car_5__passenger"/>
    <trip id="car_5_225" depart="75746.61" from="201950247#6" to="-10427692#3" type="car_5__passenger"/>
    <trip id="car_5_227" depart="75747.91" from="160314351#0" to="-24634414#1" type="car_5__passenger"/>
    <trip id="car_5_228" depart="75748.57" from="-160314345#2" to="-128361102#1" type="car_5__passenger"/>
    <trip id="car_5_229" depart="75749.22" from="-24634514#1" to="-28111977#2" type="car_5__passenger"/>
    <trip id="car_5_230" depart="75749.87" from="-233675413#0" to="-174800513" type="car_5__passenger"/>
    <trip id="car_5_231" depart="75750.52" from="24634506#2" to="24634514#0" type="car_5__passenger"/>
    <trip id="car_5_232" depart="75751.17" from="306431420" to="-25145011#0" type="car_5__passenger"/>
    <trip id="car_5_233" depart="75751.82" from="24634507" to="201963522#1" type="car_5__passenger"/>
    <trip id="car_5_234" depart="75752.48" from="-201950247#0" to="32395288#3" type="car_5__passenger"/>
    <trip id="car_5_235" depart="75753.13" from="-31860333#0" to="-24634510#15" type="car_5__passenger"/>
    <trip id="car_5_236" depart="75753.78" from="-24634415" to="399835085#0" type="car_5__passenger"/>
    <trip id="car_5_237" depart="75754.43" from="-24634517#19" to="-40888350" type="car_5__passenger"/>
    <trip id="car_5_238" depart="75755.08" from="170018165#1" to="-32395288#2" type="car_5__passenger"/>
    <trip id="car_5_239" depart="75755.73" from="224251774#0" to="-201950247#3" type="car_5__passenger"/>
    <trip id="car_5_240" depart="75756.39" from="-41203918#1" to="201956810" type="car_5__passenger"/>
    <trip id="car_5_241" depart="75757.04" from="201950247#3" to="202092675" type="car_5__passenger"/>
    <trip id="car_5_242" depart="75757.69" from="-25187893" to="22724699#0" type="car_5__passenger"/>
    <trip id="car_5_243" depart="75758.34" from="4942389#1" to="160314345#2" type="car_5__passenger"/>
    <trip id="car_5_244" depart="75758.99" from="201963533#0" to="306240162#0" type="car_5__passenger"/>
    <trip id="car_5_245" depart="75759.64" from="-25145012#1" to="-266565295#5" type="car_5__passenger"/>
    <trip id="car_5_247" depart="75760.95" from="-41203916#3" to="-37681425#4" type="car_5__passenger"/>
    <trip id="car_5_248" depart="75761.60" from="653473568#0" to="201201953#10" type="car_5__passenger"/>
    <trip id="car_5_249" depart="75762.25" from="315358244" to="-24608845" type="car_5__passenger"/>
    <trip id="car_5_250" depart="75762.90" from="-26642362#1" to="233675413#4" type="car_5__passenger"/>
    <trip id="car_5_251" depart="75763.55" from="-28319300#2" to="24634411" type="car_5__passenger"/>
    <trip id="car_5_252" depart="75764.21" from="129379968" to="-201201945#8" type="car_5__passenger"/>
    <trip id="car_5_253" depart="75764.86" from="-201963522#4" to="118362731" type="car_5__passenger"/>
    <trip id="car_5_254" depart="75765.51" from="160314345#5" to="-24634505" type="car_5__passenger"/>
    <trip id="car_5_255" depart="75766.16" from="-25145014#3" to="-10427692#1" type="car_5__passenger"/>
    <trip id="car_5_256" depart="75766.81" from="-25187889" to="-28111977#7" type="car_5__passenger"/>
    <trip id="car_5_257" depart="75767.46" from="-32978638#0" to="201963522#0" type="car_5__passenger"/>
    <trip id="car_5_258" depart="75768.11" from="272042143" to="24634517#8" type="car_5__passenger"/>
    <trip id="car_5_259" depart="75768.77" from="24634516#0" to="-26677216#4" type="car_5__passenger"/>
    <trip id="car_5_260" depart="75769.42" from="128361109#1" to="24634521#0" type="car_5__passenger"/>
    <trip id="car_5_261" depart="75770.07" from="315358244" to="-25187891" type="car_5__passenger"/>
    <trip id="car_5_262" depart="75770.72" from="-129379921#1" to="-170425366#6" type="car_5__passenger"/>
    <trip id="car_5_263" depart="75771.37" from="137132993#0" to="32124744" type="car_5__passenger"/>
    <trip id="car_5_264" depart="75772.02" from="-22879845" to="26677216#2" type="car_5__passenger"/>
    <trip id="car_5_265" depart="75772.68" from="201963522#4" to="31860333#2" type="car_5__passenger"/>
    <trip id="car_5_266" depart="75773.33" from="315358250#1" to="-201963522#5" type="car_5__passenger"/>
    <trip id="car_5_267" depart="75773.98" from="25187893" to="-22716072#5" type="car_5__passenger"/>
    <trip id="car_5_268" depart="75774.63" from="-201963533#4" to="-53396619#1" type="car_5__passenger"/>
    <trip id="car_5_269" depart="75775.28" from="128361102#0" to="-201089423#1" type="car_5__passenger"/>
    <trip id="car_5_270" depart="75775.93" from="-25209894#1" to="-24634417" type="car_5__passenger"/>
    <trip id="car_5_271" depart="75776.59" from="-22690206#0" to="-201950259#6" type="car_5__passenger"/>
    <trip id="car_5_272" depart="75777.24" from="-137132992#2" to="-25145011#0" type="car_5__passenger"/>
    <trip id="car_5_273" depart="75777.89" from="-30482615#4" to="-83304175#2" type="car_5__passenger"/>
    <trip id="car_5_274" depart="75778.54" from="23525483#0" to="218647954" type="car_5__passenger"/>
    <trip id="car_5_275" depart="75779.19" from="128361102#0" to="-315358242#1" type="car_5__passenger"/>
    <trip id="car_5_276" depart="75779.84" from="201950247#3" to="-24634516#0" type="car_5__passenger"/>
    <trip id="car_5_277" depart="75780.50" from="-24634414#2" to="-201963533#4" type="car_5__passenger"/>
    <trip id="car_5_278" depart="75781.15" from="22716069#0" to="-22724699#11" type="car_5__passenger"/>
    <trip id="car_5_279" depart="75781.80" from="-24634517#5" to="-31860333#1" type="car_5__passenger"/>
    <trip id="car_5_280" depart="75782.45" from="176550249#2" to="233675413#2" type="car_5__passenger"/>
    <trip id="car_5_281" depart="75783.10" from="201201950#0" to="201963522#3" type="car_5__passenger"/>
    <trip id="car_5_283" depart="75784.40" from="24634510#7" to="-54169231#1" type="car_5__passenger"/>
    <trip id="car_5_284" depart="75785.06" from="-36962701#1" to="201950250#1" type="car_5__passenger"/>
    <trip id="car_5_285" depart="75785.71" from="-201963533#5" to="23166741#2" type="car_5__passenger"/>
    <trip id="car_5_286" depart="75786.36" from="315358251#1" to="-32999434#1" type="car_5__passenger"/>
    <trip id="car_5_287" depart="75787.01" from="128906555" to="-25209894#0" type="car_5__passenger"/>
    <trip id="car_5_288" depart="75787.66" from="315358254#0" to="-379510292" type="car_5__passenger"/>
    <trip id="car_5_289" depart="75788.31" from="-31860333#4" to="24634517#18" type="car_5__passenger"/>
    <trip id="car_5_290" depart="75788.97" from="-32395327#1" to="36962701#1" type="car_5__passenger"/>
    <trip id="car_5_291" depart="75789.62" from="-40888354#1" to="201956819#0" type="car_5__passenger"/>
    <trip id="car_5_292" depart="75790.27" from="-26678225" to="201956819#0" type="car_5__passenger"/>
    <trip id="car_5_293" depart="75790.92" from="10427692#0" to="-201963522#2" type="car_5__passenger"/>
    <trip id="car_5_295" depart="75792.22" from="201089420#0" to="24634415" type="car_5__passenger"/>
    <trip id="car_5_296" depart="75792.88" from="104010475#0" to="-315358244" type="car_5__passenger"/>
    <trip id="car_5_297" depart="75793.53" from="-653473568#1" to="93386922" type="car_5__passenger"/>
    <trip id="car_5_298" depart="75794.18" from="-129379920#0" to="32395352#0" type="car_5__passenger"/>
    <trip id="car_5_299" depart="75794.83" from="201238726#0" to="160314345#0" type="car_5__passenger"/>
    <trip id="car_5_300" depart="75795.48" from="201963522#1" to="22724699#3" type="car_5__passenger"/>
    <trip id="car_5_301" depart="75796.13" from="26677214#5" to="51857517#1" type="car_5__passenger"/>
    <trip id="car_5_302" depart="75796.79" from="136436468#1" to="-31860333#1" type="car_5__passenger"/>