<configuration>
  <input>
    <net-file value="ingolstadt21.net.xml"/>
	<route-files value="gent_trip.rou.xml"/>
  </input>
  <time>
    <begin value="57600"/>
    <end value="61200"/>
  </time>
  <report>
    <xml-validation value="never"/>
  </report>
</configuration>
