<?xml version="1.0" encoding="UTF-8"?>
<!-- generated on 2022-02-25 15:18:35.953189 by route2trips.py UNKNOWN
  options: routes.rou.xml
-->
<routes xmlns:xsi="http://www.w3.org/2001/XMLSchema-instance" xsi:noNamespaceSchemaLocation="http://sumo.dlr.de/xsd/routes_file.xsd">
    <vType id="car_5__passenger" vClass="passenger">
    </vType>
    <trip id="car_5_0" depart="75600.00" from="25187893" to="28319300#0" type="car_5__passenger"/>
    <trip id="car_5_1" depart="75613.03" from="124812857#0" to="-26642363" type="car_5__passenger"/>
    <trip id="car_5_2" depart="75626.06" from="-104010328" to="24634411" type="car_5__passenger"/>
    <trip id="car_5_4" depart="75652.13" from="-32395352#1" to="25209894#1" type="car_5__passenger"/>
    <trip id="car_5_5" depart="75665.16" from="-25187896" to="26678225" type="car_5__passenger"/>
    <trip id="car_5_6" depart="75678.19" from="24634508" to="-653473569#1" type="car_5__passenger"/>
    <trip id="car_5_7" depart="75691.23" from="160314351#1" to="24634506#0" type="car_5__passenger"/>
    <trip id="car_5_8" depart="75704.26" from="-24634509#0" to="201238724" type="car_5__passenger"/>
    <trip id="car_5_9" depart="75717.29" from="26642362#0" to="-266565295#5" type="car_5__passenger"/>
    <trip id="car_5_10" depart="75730.32" from="25209894#0" to="24634508" type="car_5__passenger"/>
    <trip id="car_5_11" depart="75743.35" from="26677417#0" to="-315358251#0" type="car_5__passenger"/>
    <trip id="car_5_12" depart="75756.39" from="-201950247#0" to="26678225" type="car_5__passenger"/>
    <trip id="car_5_14" depart="75782.45" from="-201950247#0" to="-24634517#17" type="car_5__passenger"/>
    <trip id="car_5_15" depart="75795.48" from="201956821#0" to="-26677416#7" type="car_5__passenger"/>
    <trip id="car_5_16" depart="75808.51" from="386687232#0" to="201956811#0" type="car_5__passenger"/>
    <trip id="car_5_17" depart="75821.55" from="-24634510#8" to="23525483#0" type="car_5__passenger"/>
    <trip id="car_5_18" depart="75834.58" from="-31860333#3" to="40888351#1" type="car_5__passenger"/>
    <trip id="car_5_19" depart="75847.61" from="315358254#0" to="18809672#2" type="car_5__passenger"/>
    <trip id="car_5_20" depart="75860.64" from="201963533#1" to="24634511" type="car_5__passenger"/>
    <trip id="car_5_21" depart="75873.68" from="26642362#0" to="51857517#1" type="car_5__passenger"/>
    <trip id="car_5_22" depart="75886.71" from="-137454133#5" to="-32395414#0" type="car_5__passenger"/>
    <trip id="car_5_23" depart="75899.74" from="201201953#4" to="-28111977#2" type="car_5__passenger"/>
    <trip id="car_5_24" depart="75912.77" from="201201945#3" to="-201950247#4" type="car_5__passenger"/>
    <trip id="car_5_26" depart="75938.84" from="-201963533#1.120" to="24634411" type="car_5__passenger"/>
    <trip id="car_5_27" depart="75951.87" from="-28111977#4" to="-24634517#16" type="car_5__passenger"/>
    <trip id="car_5_28" depart="75964.90" from="124812856#0" to="-22724699#1" type="car_5__passenger"/>
    <trip id="car_5_29" depart="75977.93" from="-24634514#1" to="31860333#4" type="car_5__passenger"/>
    <trip id="car_5_30" depart="75990.96" from="24599188#0.94" to="-128361102#1" type="car_5__passenger"/>
    <trip id="car_5_31" depart="76004.00" from="25145014#0" to="-129379920#0" type="car_5__passenger"/>
    <trip id="car_5_32" depart="76017.03" from="-306240162#1" to="36962701#1" type="car_5__passenger"/>
    <trip id="car_5_33" depart="76030.06" from="201950247#5" to="-28111977#4" type="car_5__passenger"/>
    <trip id="car_5_34" depart="76043.09" from="-32395352#1" to="-40888354#1" type="car_5__passenger"/>
    <trip id="car_5_35" depart="76056.13" from="-224892339#3" to="93386922" type="car_5__passenger"/>
    <trip id="car_5_36" depart="76069.16" from="-173169611#0" to="104010354" type="car_5__passenger"/>
    <trip id="car_5_37" depart="76082.19" from="24634517#17" to="-53396619#1" type="car_5__passenger"/>
    <trip id="car_5_38" depart="76095.22" from="53396619#1" to="-25187896" type="car_5__passenger"/>
    <trip id="car_5_39" depart="76108.25" from="53396619#1" to="32395414#1" type="car_5__passenger"/>
    <trip id="car_5_40" depart="76121.29" from="22716069#1" to="32395361#0" type="car_5__passenger"/>
    <trip id="car_5_41" depart="76134.32" from="-53396619#6" to="30482615#1" type="car_5__passenger"/>
    <trip id="car_5_42" depart="76147.35" from="25187896" to="18809672#6" type="car_5__passenger"/>
    <trip id="car_5_43" depart="76160.38" from="10425609#1" to="24634514#0" type="car_5__passenger"/>
    <trip id="car_5_44" depart="76173.41" from="-40888351#2" to="-201950247#3" type="car_5__passenger"/>
    <trip id="car_5_45" depart="76186.45" from="24634517#18" to="-266565295#5" type="car_5__passenger"/>
    <trip id="car_5_46" depart="76199.48" from="128361102#0" to="26677216#3" type="car_5__passenger"/>
    <trip id="car_5_47" depart="76212.51" from="-24634413#0" to="-129379925" type="car_5__passenger"/>
    <trip id="car_5_48" depart="76225.54" from="-224251774#0" to="201956819#0" type="car_5__passenger"/>
    <trip id="car_5_49" depart="76238.58" from="-31860333#4" to="-26642362#2" type="car_5__passenger"/>
    <trip id="car_5_50" depart="76251.61" from="-612075153#1" to="399835085#1" type="car_5__passenger"/>
    <trip id="car_5_51" depart="76264.64" from="-25145012#4" to="-653473568#0" type="car_5__passenger"/>
    <trip id="car_5_53" depart="76290.70" from="-25187892" to="137454133#2" type="car_5__passenger"/>
    <trip id="car_5_54" depart="76303.74" from="10427692#7" to="-22879845" type="car_5__passenger"/>
    <trip id="car_5_55" depart="76316.77" from="-32395352#1" to="-28111977#4" type="car_5__passenger"/>
    <trip id="car_5_56" depart="76329.80" from="25209894#1" to="-315358242#1" type="car_5__passenger"/>
    <trip id="car_5_57" depart="76342.83" from="224892339#0" to="4942376" type="car_5__passenger"/>
    <trip id="car_5_58" depart="76355.86" from="32124634" to="-379510292" type="car_5__passenger"/>
    <trip id="car_5_59" depart="76368.90" from="201238718#0" to="-31395281" type="car_5__passenger"/>
    <trip id="car_5_60" depart="76381.93" from="-37386279" to="160314346#1" type="car_5__passenger"/>
    <trip id="car_5_61" depart="76394.96" from="25187893" to="40888354#1" type="car_5__passenger"/>
    <trip id="car_5_63" depart="76421.03" from="-54169231#1" to="-173203413#7" type="car_5__passenger"/>
    <trip id="car_5_64" depart="76434.06" from="-137454133#5" to="26642362#2" type="car_5__passenger"/>
    <trip id="car_5_65" depart="76447.09" from="-201963522#5" to="24634517#9" type="car_5__passenger"/>
    <trip id="car_5_66" depart="76460.12" from="-32124743" to="40888356#0" type="car_5__passenger"/>
    <trip id="car_5_67" depart="76473.15" from="272042143" to="-18809672#6" type="car_5__passenger"/>
    <trip id="car_5_68" depart="76486.19" from="-24634508" to="40888443" type="car_5__passenger"/>
    <trip id="car_5_70" depart="76512.25" from="25145014#4" to="28111977#2" type="car_5__passenger"/>
    <trip id="car_5_71" depart="76525.28" from="128361109#1" to="137132998" type="car_5__passenger"/>
    <trip id="car_5_72" depart="76538.31" from="-201950250#0" to="-32395414#1" type="car_5__passenger"/>
    <trip id="car_5_73" depart="76551.35" from="-22716072#3" to="22690206#2" type="car_5__passenger"/>
    <trip id="car_5_74" depart="76564.38" from="201238724" to="-233675413#1" type="car_5__passenger"/>
    <trip id="car_5_75" depart="76577.41" from="201950259#0" to="-201950250#2" type="car_5__passenger"/>
    <trip id="car_5_76" depart="76590.44" from="-201950263#10" to="233675413#0" type="car_5__passenger"/>
    <trip id="car_5_77" depart="76603.48" from="-93386922" to="32999434#0" type="car_5__passenger"/>
    <trip id="car_5_78" depart="76616.51" from="201950259#4" to="24634513#6" type="car_5__passenger"/>
    <trip id="car_5_79" depart="76629.54" from="-224892339#3" to="30482615#1" type="car_5__passenger"/>
    <trip id="car_5_80" depart="76642.57" from="-201201945#8" to="224892361#3" type="car_5__passenger"/>
    <trip id="car_5_81" depart="76655.60" from="315358254#0" to="37386279" type="car_5__passenger"/>
    <trip id="car_5_82" depart="76668.64" from="315358244" to="129379922" type="car_5__passenger"/>
    <trip id="car_5_83" depart="76681.67" from="23436553#4" to="26677539" type="car_5__passenger"/>
    <trip id="car_5_84" depart="76694.70" from="-22690206#2" to="40888359" type="car_5__passenger"/>
    <trip id="car_5_85" depart="76707.73" from="315358254#0" to="124812856#0" type="car_5__passenger"/>
    <trip id="car_5_86" depart="76720.76" from="25145014#0" to="129379918#0" type="car_5__passenger"/>
    <trip id="car_5_87" depart="76733.80" from="-26642362#0" to="24634517#17" type="car_5__passenger"/>
    <trip id="car_5_88" depart="76746.83" from="-18809673#1.275" to="26678225" type="car_5__passenger"/>
    <trip id="car_5_89" depart="76759.86" from="53396619#1" to="-26677416#0" type="car_5__passenger"/>
    <trip id="car_5_90" depart="76772.89" from="37681424#1" to="-201238726#1" type="car_5__passenger"/>
    <trip id="car_5_91" depart="76785.93" from="27920078#0" to="-26677216#0" type="car_5__passenger"/>
    <trip id="car_5_92" depart="76798.96" from="40888354#1" to="10427692#2" type="car_5__passenger"/>
    <trip id="car_5_94" depart="76825.02" from="-201238718#1" to="28111977#5" type="car_5__passenger"/>
    <trip id="car_5_95" depart="76838.05" from="201963522#2" to="201201945#2" type="car_5__passenger"/>
    <trip id="car_5_96" depart="76851.09" from="-138300620#6" to="-24634414#4" type="car_5__passenger"/>
    <trip id="car_5_97" depart="76864.12" from="-32395327#1" to="-173177776#1" type="car_5__passenger"/>
    <trip id="car_5_98" depart="76877.15" from="653473568#0" to="25187895#0" type="car_5__passenger"/>
    <trip id="car_5_99" depart="76890.18" from="386687232#0" to="24634513#6" type="car_5__passenger"/>
    <trip id="car_5_100" depart="76903.22" from="-315358252#1" to="-201201945#8" type="car_5__passenger"/>
    <trip id="car_5_101" depart="76916.25" from="24634509#1" to="-201963533#5" type="car_5__passenger"/>
    <trip id="car_5_102" depart="76929.28" from="170018165#1" to="137132994#0" type="car_5__passenger"/>
    <trip id="car_5_103" depart="76942.31" from="128361109#1" to="-201201945#2" type="car_5__passenger"/>
    <trip id="car_5_104" depart="76955.34" from="-201089420#1" to="18809673#0" type="car_5__passenger"/>
    <trip id="car_5_105" depart="76968.38" from="-137454133#5" to="18813598#2" type="car_5__passenger"/>
    <trip id="car_5_106" depart="76981.41" from="-22724699#11" to="-26677216#2" type="car_5__passenger"/>
    <trip id="car_5_107" depart="76994.44" from="-22724699#2" to="201950247#1" type="car_5__passenger"/>
    <trip id="car_5_108" depart="77007.47" from="-32978638#0" to="-25145012#3" type="car_5__passenger"/>
    <trip id="car_5_109" depart="77020.50" from="-24634517#3" to="201238730" type="car_5__passenger"/>
    <trip id="car_5_110" depart="77033.54" from="315358254#0" to="-83304175#2" type="car_5__passenger"/>
    <trip id="car_5_112" depart="77059.60" from="-25117391#2" to="201950247#5" type="car_5__passenger"/>
    <trip id="car_5_113" depart="77072.63" from="25149001#4" to="201950247#1" type="car_5__passenger"/>
    <trip id="car_5_114" depart="77085.67" from="-24634506#0" to="-315358244" type="car_5__passenger"/>
    <trip id="car_5_115" depart="77098.70" from="-32395361#1" to="124812856#0" type="car_5__passenger"/>
    <trip id="car_5_116" depart="77111.73" from="-36962701#1" to="93386922" type="car_5__passenger"/>
    <trip id="car_5_117" depart="77124.76" from="172488482#0" to="24608846#1" type="car_5__passenger"/>
    <trip id="car_5_118" depart="77137.79" from="24634414#1" to="23166741#5" type="car_5__passenger"/>
    <trip id="car_5_119" depart="77150.83" from="26642362#0" to="-37681425#4" type="car_5__passenger"/>
    <trip id="car_5_120" depart="77163.86" from="22690205#3" to="4942389#1" type="car_5__passenger"/>
    <trip id="car_5_121" depart="77176.89" from="-23525483#0" to="22690206#2" type="car_5__passenger"/>
    <trip id="car_5_122" depart="77189.92" from="-32395414#1" to="-18809672#5" type="car_5__passenger"/>
    <trip id="car_5_124" depart="77215.99" from="-201963533#0" to="24634517#13" type="car_5__passenger"/>
    <trip id="car_5_125" depart="77229.02" from="-201950250#0" to="-37681424#0" type="car_5__passenger"/>
    <trip id="car_5_126" depart="77242.05" from="-137454133#5" to="201201950#4" type="car_5__passenger"/>
    <trip id="car_5_127" depart="77255.08" from="25149001#4" to="-25145012#6" type="car_5__passenger"/>
    <trip id="car_5_128" depart="77268.12" from="176550249#3" to="386687242" type="car_5__passenger"/>
    <trip id="car_5_129" depart="77281.15" from="-26677417#0" to="137133006#1" type="car_5__passenger"/>
    <trip id="car_5_130" depart="77294.18" from="24634417" to="31860333#2" type="car_5__passenger"/>
    <trip id="car_5_131" depart="77307.21" from="-24608845" to="24608846#1" type="car_5__passenger"/>
    <trip id="car_5_132" depart="77320.24" from="-201963533#5" to="-201963533#1.145" type="car_5__passenger"/>
    <trip id="car_5_133" depart="77333.28" from="53396619#2" to="-170018165#3" type="car_5__passenger"/>
    <trip id="car_5_134" depart="77346.31" from="31860333#3" to="25145012#6" type="car_5__passenger"/>
    <trip id="car_5_135" depart="77359.34" from="22724699#0" to="24634521#2" type="car_5__passenger"/>
    <trip id="car_5_136" depart="77372.37" from="202070434#2" to="-26677416#0" type="car_5__passenger"/>
    <trip id="car_5_138" depart="77398.44" from="27920078#1" to="26677214#3" type="car_5__passenger"/>
    <trip id="car_5_139" depart="77411.47" from="25149001#4" to="-25117391#2" type="car_5__passenger"/>
    <trip id="car_5_140" depart="77424.50" from="201201950#0" to="-26642362#0" type="car_5__passenger"/>
    <trip id="car_5_141" depart="77437.53" from="25187889" to="25145012#1" type="car_5__passenger"/>
    <trip id="car_5_142" depart="77450.57" from="653473569#0" to="24634516#1" type="car_5__passenger"/>
    <trip id="car_5_143" depart="77463.60" from="233675413#0" to="26677214#0" type="car_5__passenger"/>
    <trip id="car_5_144" depart="77476.63" from="-201950247#0" to="201963522#2" type="car_5__passenger"/>
    <trip id="car_5_145" depart="77489.66" from="-138300620#6" to="-37681424#0" type="car_5__passenger"/>
    <trip id="car_5_146" depart="77502.69" from="-201963533#1.120" to="40888443" type="car_5__passenger"/>
    <trip id="car_5_147" depart="77515.73" from="-137454133#5" to="386687239#1" type="car_5__passenger"/>
    <trip id="car_5_148" depart="77528.76" from="379897806" to="10427692#7" type="car_5__passenger"/>
    <trip id="car_5_149" depart="77541.79" from="26677216#2" to="-173177776#1" type="car_5__passenger"/>
    <trip id="car_5_150" depart="77554.82" from="-22690206#2" to="-120125554" type="car_5__passenger"/>
    <trip id="car_5_151" depart="77567.85" from="-18809673#6" to="-10427692#2" type="car_5__passenger"/>
    <trip id="car_5_152" depart="77580.89" from="26677214#4" to="-201950247#3" type="car_5__passenger"/>
    <trip id="car_5_153" depart="77593.92" from="201201945#7" to="-26676668" type="car_5__passenger"/>
    <trip id="car_5_154" depart="77606.95" from="-22690205#2" to="-83304175#2" type="car_5__passenger"/>
    <trip id="car_5_155" depart="77619.98" from="-24634415" to="51857518#1" type="car_5__passenger"/>
    <trip id="car_5_156" depart="77633.02" from="-32395414#1" to="201963522#0" type="car_5__passenger"/>
    <trip id="car_5_157" depart="77646.05" from="176550249#1" to="22690206#2" type="car_5__passenger"/>
    <trip id="car_5_158" depart="77659.08" from="10427692#8" to="-26676668" type="car_5__passenger"/>
    <trip id="car_5_159" depart="77672.11" from="-22690206#2" to="32395361#0" type="car_5__passenger"/>
    <trip id="car_5_160" depart="77685.14" from="-24634508" to="129379920#1" type="car_5__passenger"/>
    <trip id="car_5_161" depart="77698.18" from="26642362#3" to="201950250#0" type="car_5__passenger"/>
    <trip id="car_5_162" depart="77711.21" from="379897806" to="27920078#1" type="car_5__passenger"/>
    <trip id="car_5_163" depart="77724.24" from="136436468#0" to="-224251776#1" type="car_5__passenger"/>
    <trip id="car_5_164" depart="77737.27" from="201201950#0" to="137454133#2" type="car_5__passenger"/>
    <trip id="car_5_165" depart="77750.30" from="28111977#10" to="201143839" type="car_5__passenger"/>
    <trip id="car_5_166" depart="77763.34" from="23525483#0" to="28111977#1" type="car_5__passenger"/>
    <trip id="car_5_167" depart="77776.37" from="10425609#0" to="306431419" type="car_5__passenger"/>
    <trip id="car_5_168" depart="77789.40" from="315358248#0" to="-23525483#5" type="car_5__passenger"/>
    <trip id="car_5_170" depart="77815.47" from="272042143" to="-315358253#0" type="car_5__passenger"/>
    <trip id="car_5_171" depart="77828.50" from="-25145012#1" to="-22716069#2" type="car_5__passenger"/>
    <trip id="car_5_172" depart="77841.53" from="-32395327#1" to="315358253#0" type="car_5__passenger"/>
    <trip id="car_5_173" depart="77854.56" from="-32124744" to="-10427692#5" type="car_5__passenger"/>
    <trip id="car_5_174" depart="77867.59" from="-26678225" to="-201238726#0.98" type="car_5__passenger"/>
    <trip id="car_5_176" depart="77893.66" from="32124744" to="-201950247#3" type="car_5__passenger"/>
    <trip id="car_5_177" depart="77906.69" from="-32395361#1" to="-22690205#1" type="car_5__passenger"/>
    <trip id="car_5_178" depart="77919.72" from="315358254#0" to="306240162#0" type="car_5__passenger"/>
    <trip id="car_5_179" depart="77932.75" from="137132996" to="41203916#0" type="car_5__passenger"/>
    <trip id="car_5_180" depart="77945.79" from="137132997" to="26677213#0" type="car_5__passenger"/>
    <trip id="car_5_181" depart="77958.82" from="128361102#0" to="-32999434#1" type="car_5__passenger"/>
    <trip id="car_5_182" depart="77971.85" from="653473568#1" to="306431419" type="car_5__passenger"/>
    <trip id="car_5_184" depart="77997.92" from="201963537#1" to="26677542#1" type="car_5__passenger"/>
    <trip id="car_5_185" depart="78010.95" from="-18809673#6" to="-22716069#0" type="car_5__passenger"/>
    <trip id="car_5_186" depart="78023.98" from="-201963522#2" to="201963533#5" type="car_5__passenger"/>
    <trip id="car_5_187" depart="78037.01" from="24634414#4" to="-23525483#6" type="car_5__passenger"/>
    <trip id="car_5_188" depart="78050.04" from="129379925" to="-201963533#5" type="car_5__passenger"/>
    <trip id="car_5_189" depart="78063.08" from="233675413#3" to="26677214#4" type="car_5__passenger"/>
    <trip id="car_5_190" depart="78076.11" from="-201238724" to="53396619#4" type="car_5__passenger"/>
    <trip id="car_5_191" depart="78089.14" from="22690205#2" to="-224892361#8" type="car_5__passenger"/>
    <trip id="car_5_193" depart="78115.20" from="24634506#2" to="386687235" type="car_5__passenger"/>
    <trip id="car_5_194" depart="78128.24" from="-24634414#0" to="-24634510#0" type="car_5__passenger"/>
    <trip id="car_5_195" depart="78141.27" from="201950259#4" to="315358257#0.43" type="car_5__passenger"/>
    <trip id="car_5_196" depart="78154.30" from="24634513#0" to="137132992#0" type="car_5__passenger"/>
    <trip id="car_5_197" depart="78167.33" from="-201963522#3" to="224251776#0" type="car_5__passenger"/>
    <trip id="car_5_198" depart="78180.37" from="-653473569#1" to="272042145" type="car_5__passenger"/>
    <trip id="car_5_199" depart="78193.40" from="18813598#0" to="25117417#0" type="car_5__passenger"/>
    <trip id="car_5_200" depart="78206.43" from="4942389#0" to="22690206#2" type="car_5__passenger"/>
    <trip id="car_5_201" depart="78219.46" from="315358254#0" to="-26676668" type="car_5__passenger"/>
    <trip id="car_5_202" depart="78232.49" from="-10427692#1" to="32395352#0" type="car_5__passenger"/>
    <trip id="car_5_203" depart="78245.53" from="-137454133#5" to="653473569#3" type="car_5__passenger"/>
    <trip id="car_5_204" depart="78258.56" from="-653473569#1" to="-18809672#5" type="car_5__passenger"/>
    <trip id="car_5_205" depart="78271.59" from="-25209894#0" to="24634518#2" type="car_5__passenger"/>
    <trip id="car_5_206" depart="78284.62" from="-32395414#1" to="22690206#0" type="car_5__passenger"/>
    <trip id="car_5_207" depart="78297.66" from="-201950250#1" to="30482615#1" type="car_5__passenger"/>
    <trip id="car_5_208" depart="78310.69" from="-32395352#1" to="30482615#1" type="car_5__passenger"/>
    <trip id="car_5_209" depart="78323.72" from="-22716073" to="24634414#0" type="car_5__passenger"/>
    <trip id="car_5_210" depart="78336.75" from="104012170" to="-53396619#6" type="car_5__passenger"/>
    <trip id="car_5_211" depart="78349.78" from="-136728347#4" to="201143840" type="car_5__passenger"/>
    <trip id="car_5_212" depart="78362.82" from="26677416#0" to="-201963522#2" type="car_5__passenger"/>
    <trip id="car_5_213" depart="78375.85" from="-53396619#5" to="-128361102#1" type="car_5__passenger"/>
    <trip id="car_5_214" depart="78388.88" from="653473568#1" to="4942376" type="car_5__passenger"/>
    <trip id="car_5_215" depart="78401.91" from="22724699#3" to="138300620#0" type="car_5__passenger"/>
    <trip id="car_5_216" depart="78414.94" from="-18813598#1" to="-224892339#3" type="car_5__passenger"/>
    <trip id="car_5_217" depart="78427.98" from="24608844" to="26677540#2" type="car_5__passenger"/>
    <trip id="car_5_218" depart="78441.01" from="54169231#1" to="31860333#0" type="car_5__passenger"/>
    <trip id="car_5_219" depart="78454.04" from="-447569998#1" to="-26642362#1" type="car_5__passenger"/>
    <trip id="car_5_220" depart="78467.07" from="168702040#1" to="-315358255#4" type="car_5__passenger"/>
    <trip id="car_5_221" depart="78480.11" from="168702040#4" to="32395352#0" type="car_5__passenger"/>
    <trip id="car_5_222" depart="78493.14" from="-653473568#0" to="53396619#5" type="car_5__passenger"/>
    <trip id="car_5_223" depart="78506.17" from="24634414#3" to="-170018165#0" type="car_5__passenger"/>
    <trip id="car_5_224" depart="78519.20" from="24634517#18" to="24608846#1" type="car_5__passenger"/>
    <trip id="car_5_225" depart="78532.23" from="201950247#6" to="-10427692#3" type="car_5__passenger"/>
    <trip id="car_5_227" depart="78558.30" from="160314351#0" to="-24634414#1" type="car_5__passenger"/>
    <trip id="car_5_228" depart="78571.33" from="-160314345#2" to="-128361102#1" type="car_5__passenger"/>
    <trip id="car_5_229" depart="78584.36" from="-24634514#1" to="-28111977#2" type="car_5__passenger"/>
    <trip id="car_5_230" depart="78597.39" from="-233675413#0" to="-174800513" type="car_5__passenger"/>
    <trip id="car_5_231" depart="78610.43" from="24634506#2" to="24634514#0" type="car_5__passenger"/>
    <trip id="car_5_232" depart="78623.46" from="306431420" to="-25145011#0" type="car_5__passenger"/>
    <trip id="car_5_233" depart="78636.49" from="24634507" to="201963522#1" type="car_5__passenger"/>
    <trip id="car_5_234" depart="78649.52" from="-201950247#0" to="32395288#3" type="car_5__passenger"/>
    <trip id="car_5_235" depart="78662.56" from="-31860333#0" to="-24634510#15" type="car_5__passenger"/>
    <trip id="car_5_236" depart="78675.59" from="-24634415" to="399835085#0" type="car_5__passenger"/>
    <trip id="car_5_237" depart="78688.62" from="-24634517#19" to="-40888350" type="car_5__passenger"/>
    <trip id="car_5_238" depart="78701.65" from="170018165#1" to="-32395288#2" type="car_5__passenger"/>
    <trip id="car_5_239" depart="78714.68" from="224251774#0" to="-201950247#3" type="car_5__passenger"/>
    <trip id="car_5_240" depart="78727.72" from="-41203918#1" to="201956810" type="car_5__passenger"/>
    <trip id="car_5_241" depart="78740.75" from="201950247#3" to="202092675" type="car_5__passenger"/>
    <trip id="car_5_242" depart="78753.78" from="-25187893" to="22724699#0" type="car_5__passenger"/>
    <trip id="car_5_243" depart="78766.81" from="4942389#1" to="160314345#2" type="car_5__passenger"/>
    <trip id="car_5_244" depart="78779.84" from="201963533#0" to="306240162#0" type="car_5__passenger"/>
    <trip id="car_5_245" depart="78792.88" from="-25145012#1" to="-266565295#5" type="car_5__passenger"/>
    <trip id="car_5_247" depart="78818.94" from="-41203916#3" to="-37681425#4" type="car_5__passenger"/>
    <trip id="car_5_248" depart="78831.97" from="653473568#0" to="201201953#10" type="car_5__passenger"/>
    <trip id="car_5_249" depart="78845.01" from="315358244" to="-24608845" type="car_5__passenger"/>
    <trip id="car_5_250" depart="78858.04" from="-26642362#1" to="233675413#4" type="car_5__passenger"/>
    <trip id="car_5_251" depart="78871.07" from="-28319300#2" to="24634411" type="car_5__passenger"/>
    <trip id="car_5_252" depart="78884.10" from="129379968" to="-201201945#8" type="car_5__passenger"/>
    <trip id="car_5_253" depart="78897.13" from="-201963522#4" to="118362731" type="car_5__passenger"/>
    <trip id="car_5_254" depart="78910.17" from="160314345#5" to="-24634505" type="car_5__passenger"/>
    <trip id="car_5_255" depart="78923.20" from="-25145014#3" to="-10427692#1" type="car_5__passenger"/>
    <trip id="car_5_256" depart="78936.23" from="-25187889" to="-28111977#7" type="car_5__passenger"/>
    <trip id="car_5_257" depart="78949.26" from="-32978638#0" to="201963522#0" type="car_5__passenger"/>
    <trip id="car_5_258" depart="78962.29" from="272042143" to="24634517#8" type="car_5__passenger"/>
    <trip id="car_5_259" depart="78975.33" from="24634516#0" to="-26677216#4" type="car_5__passenger"/>
    <trip id="car_5_260" depart="78988.36" from="128361109#1" to="24634521#0" type="car_5__passenger"/>
    <trip id="car_5_261" depart="79001.39" from="315358244" to="-25187891" type="car_5__passenger"/>
    <trip id="car_5_262" depart="79014.42" from="-129379921#1" to="-170425366#6" type="car_5__passenger"/>
    <trip id="car_5_263" depart="79027.46" from="137132993#0" to="32124744" type="car_5__passenger"/>
    <trip id="car_5_264" depart="79040.49" from="-22879845" to="26677216#2" type="car_5__passenger"/>
    <trip id="car_5_265" depart="79053.52" from="201963522#4" to="31860333#2" type="car_5__passenger"/>
    <trip id="car_5_266" depart="79066.55" from="315358250#1" to="-201963522#5" type="car_5__passenger"/>
    <trip id="car_5_267" depart="79079.58" from="25187893" to="-22716072#5" type="car_5__passenger"/>
    <trip id="car_5_268" depart="79092.62" from="-201963533#4" to="-53396619#1" type="car_5__passenger"/>
    <trip id="car_5_269" depart="79105.65" from="128361102#0" to="-201089423#1" type="car_5__passenger"/>
    <trip id="car_5_270" depart="79118.68" from="-25209894#1" to="-24634417" type="car_5__passenger"/>
    <trip id="car_5_271" depart="79131.71" from="-22690206#0" to="-201950259#6" type="car_5__passenger"/>
    <trip id="car_5_272" depart="79144.74" from="-137132992#2" to="-25145011#0" type="car_5__passenger"/>
    <trip id="car_5_273" depart="79157.78" from="-30482615#4" to="-83304175#2" type="car_5__passenger"/>
    <trip id="car_5_274" depart="79170.81" from="23525483#0" to="218647954" type="car_5__passenger"/>
    <trip id="car_5_275" depart="79183.84" from="128361102#0" to="-315358242#1" type="car_5__passenger"/>
    <trip id="car_5_276" depart="79196.87" from="201950247#3" to="-24634516#0" type="car_5__passenger"/>
    <trip id="car_5_277" depart="79209.91" from="-24634414#2" to="-201963533#4" type="car_5__passenger"/>
    <trip id="car_5_278" depart="79222.94" from="22716069#0" to="-22724699#11" type="car_5__passenger"/>
    <trip id="car_5_279" depart="79235.97" from="-24634517#5" to="-31860333#1" type="car_5__passenger"/>
    <trip id="car_5_280" depart="79249.00" from="176550249#2" to="233675413#2" type="car_5__passenger"/>
    <trip id="car_5_281" depart="79262.03" from="201201950#0" to="201963522#3" type="car_5__passenger"/>
    <trip id="car_5_283" depart="79288.10" from="24634510#7" to="-54169231#1" type="car_5__passenger"/>
    <trip id="car_5_284" depart="79301.13" from="-36962701#1" to="201950250#1" type="car_5__passenger"/>
    <trip id="car_5_285" depart="79314.16" from="-201963533#5" to="23166741#2" type="car_5__passenger"/>
    <trip id="car_5_286" depart="79327.19" from="315358251#1" to="-32999434#1" type="car_5__passenger"/>
    <trip id="car_5_287" depart="79340.23" from="128906555" to="-25209894#0" type="car_5__passenger"/>
    <trip id="car_5_288" depart="79353.26" from="315358254#0" to="-379510292" type="car_5__passenger"/>
    <trip id="car_5_289" depart="79366.29" from="-31860333#4" to="24634517#18" type="car_5__passenger"/>
    <trip id="car_5_290" depart="79379.32" from="-32395327#1" to="36962701#1" type="car_5__passenger"/>
    <trip id="car_5_291" depart="79392.36" from="-40888354#1" to="201956819#0" type="car_5__passenger"/>
    <trip id="car_5_292" depart="79405.39" from="-26678225" to="201956819#0" type="car_5__passenger"/>
    <trip id="car_5_293" depart="79418.42" from="10427692#0" to="-201963522#2" type="car_5__passenger"/>
    <trip id="car_5_295" depart="79444.48" from="201089420#0" to="24634415" type="car_5__passenger"/>
    <trip id="car_5_296" depart="79457.52" from="104010475#0" to="-315358244" type="car_5__passenger"/>
    <trip id="car_5_297" depart="79470.55" from="-653473568#1" to="93386922" type="car_5__passenger"/>
    <trip id="car_5_298" depart="79483.58" from="-129379920#0" to="32395352#0" type="car_5__passenger"/>
    <trip id="car_5_299" depart="79496.61" from="201238726#0" to="160314345#0" type="car_5__passenger"/>
    <trip id="car_5_300" depart="79509.65" from="201963522#1" to="22724699#3" type="car_5__passenger"/>
    <trip id="car_5_301" depart="79522.68" from="26677214#5" to="51857517#1" type="car_5__passenger"/>
    <trip id="car_5_302" depart="79535.71" from="136436468#1" to="-31860333#1" type="car_5__passenger"/>