<?xml version="1.0" encoding="UTF-8"?>

<!-- generated on 2022-02-23 11:13:25 by Eclipse SUMO duarouter Version 1.12.0
<configuration xmlns:xsi="http://www.w3.org/2001/XMLSchema-instance" xsi:noNamespaceSchemaLocation="http://sumo.dlr.de/xsd/duarouterConfiguration.xsd">

    <input>
        <net-file value="../RESCO/environments/ingolstadt21/ingolstadt21.net.xml"/>
        <route-files value=".tmp.xml"/>
    </input>

    <output>
        <output-file value="routes.rou.xml"/>
        <alternatives-output value="routes.rou.alt.xml"/>
    </output>

    <time>
        <begin value="75600.0"/>
        <end value="86400.0"/>
    </time>

    <report>
        <no-warnings value="true"/>
        <ignore-errors value="true"/>
        <no-step-log value="true"/>
    </report>

</configuration>
-->

<routes xmlns:xsi="http://www.w3.org/2001/XMLSchema-instance" xsi:noNamespaceSchemaLocation="http://sumo.dlr.de/xsd/routes_file.xsd">
    <vType id="car_5__passenger" vClass="passenger"/>
    <vehicle id="car_5_0" type="car_5__passenger" depart="75600.00">
        <route edges="25187893 -28111977#8 25209894#0 25209894#1 25145014#3 25145014#4 26642362#2 26642362#3 26642362#4 -201963533#5 -201963533#4 -201963533#1 -201963533#1.120 -201963533#1.145 -201963533#0 10427692#0 10427692#2 10427692#3 10427692#4 10427692#5 10427692#6 10427692#7 10427692#7.50 10427692#8 201238726#0 201238726#0.117 201238726#1 201238719#0 170018165#0 -224892361#8 -224892361#6 -224892361#2 -224892361#1 286646456#1 315358255#0 -315358257#2 -315358257#0.26 -201089420#1 28319300#0"/>
    </vehicle>
    <vehicle id="car_5_1" type="car_5__passenger" depart="75730.32">
        <route edges="124812857#0 201956811#0 10425609#0 10425609#1 201963537#1 -164051413 -653473569#5 -653473569#4 -653473569#2 -653473569#1 -653473569#0 -653473568#1 -653473568#0 -18813598#8 -18813598#7 25136986 -26642363"/>
    </vehicle>
    <vehicle id="car_5_2" type="car_5__passenger" depart="75860.64">
        <route edges="-104010328 -25145013#0 653473569#5 164051413 104010475#0 104012170 -32124745 -32124743 -32124744 -201089423#2 -201089423#1 24693977#0 24693977#1 315392062#0 160314345#0 24634411"/>
    </vehicle>
    <vehicle id="car_5_4" type="car_5__passenger" depart="76121.29">
        <route edges="-32395352#1 201963522#2 201963522#3 201963522#4 -37681425#7 -37681425#6 -31860333#4 32395414#0 32395414#1 28111977#5 28111977#6 28111977#7 25209894#0 25209894#1"/>
    </vehicle>
    <vehicle id="car_5_5" type="car_5__passenger" depart="76251.61">
        <route edges="-25187896 -25187895#0 28111977#10 653473568#1 653473569#0 653473569#1 653473569#2 653473569#3 653473569#5 164051413 104010475#0 104012170 -32124745 -32124743 -32124744 -201089423#2 -201089423#1 24693977#0 24693977#1 315392062#0 201238718#0 201238718#1 174800513 201201945#0 201201945#1 -136436468#2 26677213#0 26677214#0 26678225"/>
    </vehicle>
    <vehicle id="car_5_6" type="car_5__passenger" depart="76381.93">
        <route edges="24634508 -24693977#1 -24693977#0 201089423#0 201089423#2 32124744 32124743 285716192#0 285716192#0.83 201963535 104010354 -164051413 -653473569#5 -653473569#4 -653473569#2 -653473569#1"/>
    </vehicle>
    <vehicle id="car_5_7" type="car_5__passenger" depart="76512.25">
        <route edges="160314351#1 24608845 160314346#0 24634506#0"/>
    </vehicle>
    <vehicle id="car_5_8" type="car_5__passenger" depart="76642.57">
        <route edges="-24634509#0 -22716549#6 -201089423#1 24693977#0 24693977#1 315392062#0 -160314346#1 -160314346#0 24634505 201238724"/>
    </vehicle>
    <vehicle id="car_5_9" type="car_5__passenger" depart="76772.89">
        <route edges="26642362#0 26642362#1 -25145014#4 -25145014#3 -25209894#1 25145012#0 25145012#1 25145012#2 25145012#3 25145012#4 22716069#2 653473569#2 653473569#3 653473569#5 164051413 104010475#0 104012170 -32124745 -32124743 -32124744 -201089423#2 -201089423#1 -32999434#1 32999110#0 402600768#0 402600768#1 51857517#0 51857517#0.33 51857517#1 51857516#1 -266565295#5"/>
    </vehicle>
    <vehicle id="car_5_10" type="car_5__passenger" depart="76903.22">
        <route edges="25209894#0 25145012#0 25145012#1 25145012#2 25145012#3 25145012#4 22716069#2 653473569#2 653473569#3 653473569#5 164051413 104010475#0 104012170 -32124745 -32124743 -32124744 -201089423#2 22716549#0 24634509#0 24634507 24634508"/>
    </vehicle>
    <vehicle id="car_5_11" type="car_5__passenger" depart="77033.54">
        <route edges="26677417#0 26677417#1 26677542#1 -26677214#5 -26677214#4 -26677214#3 -26677214#2 -26677213#5 136436468#1 -201201945#1 -201201945#0 -201201945#0.78 -174800513 201201950#0 201201950#1 201201950#2 201201950#3 201201950#4 386687239#0 386687239#1 202092676#0 -136436466 -315358251#1 -315358251#0"/>
    </vehicle>
    <vehicle id="car_5_12" type="car_5__passenger" depart="77163.86">
        <route edges="-201950247#0 -201950250#2 -201950250#1 -201950250#0 -26677214#5 -26677214#4 -26677214#3 26678225"/>
    </vehicle>
    <vehicle id="car_5_14" type="car_5__passenger" depart="77424.50">
        <route edges="-201950247#0 -201950250#2 -201950250#1 -201950250#0 -26677542#1 -26677542#0 -201950263#6 -25117391#2 -25117391#1 315358257#0 315358257#0.43 -315358255#4 -286646456#2 224892361#1 224892361#2 224892361#3 224892361#7 -170018165#0 137133006#0 137133006#1 -201238726#1 -201238726#0 -201238726#0.98 -10427692#8 -10427692#7 -10427692#6 -10427692#5 -10427692#4 -10427692#3 -10427692#2 -10427692#1 201963533#0 201963533#1 24634517#1 24634517#4 24634517#6 24634517#8 24634517#9 24634517#13 -24634517#19 -24634517#18 -24634517#17"/>
    </vehicle>
    <vehicle id="car_5_15" type="car_5__passenger" depart="77554.82">
        <route edges="201956821#0 201956821#1.68 201963537#1 104010475#0 104012170 -32124745 -32124743 -32124744 -201089423#2 -201089423#1 -32999434#1 32999110#0 -315358253#2 -315358253#1 -315358253#0 -315358248#1 -315358245 -202092675.36 -4942389#1 -4942389#0 -136436466 -315358251#1 -315358251#0 -315358242#2 -315358242#1 -315358242#0 -129379925 -40888351#6 -26677416#7"/>
    </vehicle>
    <vehicle id="car_5_16" type="car_5__passenger" depart="77685.14">
        <route edges="386687232#0 136436466 4942389#0 4942389#1 202092675 315358245.27 315358248#0 315358253#0 315358253#1 315358253#2 168702039#1 32999434#0 201089423#0 201089423#2 32124744 32124743 285716192#0 285716192#0.83 201963535 104010354 124812857#0 201956811#0"/>
    </vehicle>
    <vehicle id="car_5_17" type="car_5__passenger" depart="77815.47">
        <route edges="-24634510#8 204588664#0 -23436553#2 23525483#0"/>
    </vehicle>
    <vehicle id="car_5_18" type="car_5__passenger" depart="77945.79">
        <route edges="-31860333#3 -31860333#2 -28111977#1 37681424#1 -18809672#5 -18809672#4 -18809672#1 10427692#0 10427692#2 10427692#3 10427692#4 10427692#5 10427692#6 10427692#7 10427692#7.50 10427692#8 201238726#0 201238726#0.117 201238726#1 201238730 176550249#0 176550249#1 176550249#2 176550249#3 176550249#4 201201950#0 201201950#1 201201950#2 201201950#3 -24634414#0 -40888350 -201950247#6 -201950247#5 -201950247#4 -53396619#4 -53396619#3 -40888354#2 -40888354#1 -40888354#0 40888351#1"/>
    </vehicle>
    <vehicle id="car_5_19" type="car_5__passenger" depart="78076.11">
        <route edges="315358254#0 -315358255#4 -286646456#2 224892361#1 224892361#2 224892361#3 224892361#7 -170018165#0 137133006#0 137133006#1 -201238726#1 -201238726#0 -201238726#0.98 -10427692#8 -10427692#7 -10427692#6 -10427692#5 -10427692#4 -10427692#3 -10427692#2 -10427692#1 18809672#0 18809672#2"/>
    </vehicle>
    <vehicle id="car_5_20" type="car_5__passenger" depart="78206.43">
        <route edges="201963533#1 201963533#4 201963533#5 -26642362#5 -22716072#5 -22716072#3 -18809672#1 10427692#0 10427692#2 10427692#3 10427692#4 10427692#5 10427692#6 10427692#7 10427692#7.50 10427692#8 -24634510#18 -24634510#15 -24634510#8 -24634510#6 -24634510#5 24634511"/>
    </vehicle>
    <vehicle id="car_5_21" type="car_5__passenger" depart="78336.75">
        <route edges="26642362#0 26642362#1 -25145014#4 -25145014#3 -25209894#1 25145012#0 25145012#1 25145012#2 25145012#3 25145012#4 22716069#2 653473569#2 653473569#3 653473569#5 164051413 104010475#0 104012170 -32124745 -32124743 -32124744 -201089423#2 -201089423#1 -32999434#1 32999110#0 402600768#0 402600768#1 51857517#0 51857517#0.33 51857517#1"/>
    </vehicle>
    <vehicle id="car_5_22" type="car_5__passenger" depart="78467.07">
        <route edges="-137454133#5 -137454133#1 -137454133#0 224892361#7 -170018165#0 137133006#0 137133006#1 -201238726#1 -201238726#0 -201238726#0.98 -10427692#8 -10427692#7 -10427692#6 -10427692#5 -10427692#4 -10427692#3 -10427692#2 -10427692#1 201963533#0 201963533#1 201963533#4 201963533#5 -26642362#5 -26642362#3 -26642362#2 -26642362#1 -28111977#5 -32395414#1 -32395414#0"/>
    </vehicle>
    <vehicle id="car_5_23" type="car_5__passenger" depart="78597.39">
        <route edges="201201953#4 201201953#10 201201953#12 176550246 -201238726#1 -201238726#0 -201238726#0.98 -10427692#8 -10427692#7 -10427692#6 -10427692#5 -10427692#4 -10427692#3 -10427692#2 -10427692#1 18809672#0 18809672#2 18809672#5 -37681424#1 28111977#1 31860333#2 32395464 -28111977#2"/>
    </vehicle>
    <vehicle id="car_5_24" type="car_5__passenger" depart="78727.72">
        <route edges="201201945#3 201201945#7 201201945#8 40888359 -201201945#7 -201201945#6 -201201945#2 -201201945#1 -201201945#0 -201201945#0.78 -174800513 201201950#0 201201950#1 201201950#2 201201950#3 -24634414#0 -40888350 -201950247#6 -201950247#5 -201950247#4"/>
    </vehicle>
    <vehicle id="car_5_26" type="car_5__passenger" depart="78988.36">
        <route edges="-201963533#1.120 -201963533#1.145 -201963533#0 10427692#0 10427692#2 10427692#3 10427692#4 10427692#5 10427692#6 10427692#7 10427692#7.50 10427692#8 -24634510#18 -24634510#15 -24634510#8 -24634510#6 -24634510#5 -24634510#0 -24634505 160314346#0 160314346#1 160314345#0 24634411"/>
    </vehicle>
    <vehicle id="car_5_27" type="car_5__passenger" depart="79118.68">
        <route edges="-28111977#4 -28111977#3 -32395464 31860333#3 32395414#0 32395414#1 28111977#5 26642362#1 26642362#2 26642362#3 26642362#4 -201963533#5 -201963533#4 24634517#1 24634517#4 24634517#6 24634517#8 24634517#9 24634517#13 -24634517#19 -24634517#18 -24634517#17 -24634517#16"/>
    </vehicle>
    <vehicle id="car_5_28" type="car_5__passenger" depart="79249.00">
        <route edges="124812856#0 124812856#1 201956821#0 201956821#1.68 201963537#1 104010475#0 104012170 -32124745 -32124743 -32124744 -201089423#2 -201089423#1 24693977#0 24693977#1 315392062#0 201238718#0 201238718#1 174800513 201201953#0 40888360#0 -22724699#1"/>
    </vehicle>
    <vehicle id="car_5_29" type="car_5__passenger" depart="79379.32">
        <route edges="-24634514#1 24634510#16 -10427692#8 -10427692#7 -10427692#6 -10427692#5 -10427692#4 -10427692#3 -10427692#2 -10427692#1 18809672#0 18809672#2 18809672#5 -37681424#1 28111977#1 31860333#2 31860333#3 31860333#4"/>
    </vehicle>
    <vehicle id="car_5_30" type="car_5__passenger" depart="79509.65">
        <route edges="24599188#0.94 172488482#0 -32124744 -201089423#2 -201089423#1 24693977#0 24693977#1 315392062#0 -160314346#1 -160314346#0 24634505 24634510#0 24634510#1 24634510#6 24634510#7 24634510#9 24634510#16 -10427692#8 -10427692#7 -10427692#6 -10427692#5 -10427692#4 -10427692#3 -10427692#2 -10427692#1 -285549250#1 -128361102#1"/>
    </vehicle>
    <vehicle id="car_5_31" type="car_5__passenger" depart="79639.97">
        <route edges="25145014#0 25187889 25145012#3 25145012#4 22716069#2 653473569#2 653473569#3 653473569#5 164051413 104010475#0 104012170 -32124745 -32124743 -32124744 -201089423#2 -201089423#1 -32999434#1 32999110#0 -315358253#2 -315358253#1 -315358253#0 -315358248#1 -315358245 -202092675.36 -4942389#1 -4942389#0 -136436466 -315358251#1 -315358251#0 -315358242#2 -315358242#1 -315358242#0 -129379925 -129379918#1 -315358252#1 -129379922 -315358246 -129379920#1 -129379920#0"/>
    </vehicle>
    <vehicle id="car_5_32" type="car_5__passenger" depart="79770.29">
        <route edges="-306240162#1 -224251776#1 224251774#0 224251774#1 286646456#0 286646456#1 315358255#0 -315358257#2 -315358257#0.26 25117391#0 25117391#2 201950263#0 26677542#0 36962701#0 36962701#1"/>
    </vehicle>
    <vehicle id="car_5_33" type="car_5__passenger" depart="79900.61">
        <route edges="201950247#5 201950247#6 201950247#7 201950247#8 315358242#3 315358251#1 136436466 4942389#0 4942389#1 202092675 315358245.27 315358248#0 315358253#0 315358253#1 315358253#2 168702039#1 32999434#0 201089423#0 201089423#2 32124744 32124743 285716192#0 285716192#0.83 201963535 -104010328 -25145012#6 -25145012#5 -25145012#4 -25145012#3 -25187889 25145014#1 25145014#2 25145014#3 25145014#4 -26642362#1 -28111977#5 -28111977#4"/>
    </vehicle>
    <vehicle id="car_5_34" type="car_5__passenger" depart="80030.93">
        <route edges="-32395352#1 -201963522#1 -201963522#0 -18809672#7 -18809672#6 -18809672#5 -18809672#4 -18809672#1 10427692#0 10427692#2 10427692#3 10427692#4 10427692#5 10427692#6 10427692#7 10427692#7.50 10427692#8 201238726#0 201238726#0.117 201238726#1 201238730 176550249#0 176550249#1 176550249#2 176550249#3 176550249#4 201201950#0 201201950#1 201201950#2 201201950#3 -24634414#0 -40888350 -201950247#6 -201950247#5 -201950247#4 -53396619#4 -53396619#3 -40888354#2 -40888354#1"/>
    </vehicle>
    <vehicle id="car_5_35" type="car_5__passenger" depart="80161.25">
        <route edges="-224892339#3 224892361#3 224892361#7 -170018165#0 137133006#0 137133006#1 -201238726#1 -201238726#0 -201238726#0.98 -10427692#8 -10427692#7 -10427692#6 -10427692#5 -10427692#4 -10427692#3 -10427692#2 -10427692#1 18809672#0 18809672#2 18809672#5 -37681424#1 28111977#1 -31860333#1 93386922"/>
    </vehicle>
    <vehicle id="car_5_36" type="car_5__passenger" depart="80291.57">
        <route edges="-173169611#0 201956821#0 201956821#1.68 201963537#1 -164051413 -653473569#5 25145013#0 25145012#7 104010354"/>
    </vehicle>
    <vehicle id="car_5_37" type="car_5__passenger" depart="80421.90">
        <route edges="24634517#17 24634517#18 24634517#19 -24634517#16 -24634517#12 -24634517#8 -24634517#7 -24634517#5 -24634517#3 -201963533#1 -201963533#1.120 -201963533#1.145 -201963533#0 10427692#0 10427692#2 10427692#3 10427692#4 10427692#5 10427692#6 10427692#7 10427692#7.50 10427692#8 201238726#0 201238726#0.117 201238726#1 201238730 176550249#0 176550249#1 176550249#2 176550249#3 176550249#4 201201950#0 201201950#1 201201950#2 201201950#3 -24634414#0 -40888350 -201950247#6 -201950247#5 -201950247#4 -53396619#4 -53396619#3 -53396619#2 -53396619#1"/>
    </vehicle>
    <vehicle id="car_5_38" type="car_5__passenger" depart="80552.22">
        <route edges="53396619#1 53396619#2 53396619#3 53396619#4 201950247#4 201950247#5 201950247#6 201950247#7 201950247#8 315358242#3 315358251#1 136436466 4942389#0 4942389#1 202092675 315358245.27 315358248#0 315358253#0 315358253#1 315358253#2 168702039#1 32999434#0 201089423#0 201089423#2 32124744 32124743 285716192#0 285716192#0.83 201963535 -104010328 -25145012#6 -25145012#5 -25145012#4 -25187896"/>
    </vehicle>
    <vehicle id="car_5_39" type="car_5__passenger" depart="80682.54">
        <route edges="53396619#1 53396619#2 53396619#3 53396619#4 53396619#5 53396619#6 26677216#3 23166741#5 201201953#0 201201953#2 201201953#4 201201953#10 201201953#12 176550246 -201238726#1 -201238726#0 -201238726#0.98 -10427692#8 -10427692#7 -10427692#6 -10427692#5 -10427692#4 -10427692#3 -10427692#2 -10427692#1 18809672#0 18809672#2 18809672#5 -37681424#1 28111977#1 31860333#2 31860333#3 32395414#0 32395414#1"/>
    </vehicle>
    <vehicle id="car_5_40" type="car_5__passenger" depart="80812.86">
        <route edges="22716069#1 22716069#2 -653473569#1 -653473569#0 -653473568#1 -653473568#0 -18813598#8 -18813598#7 -18813598#6 -18813598#1 -201963522#9 -201963522#5 -201963522#4 -201963522#3 32395361#0"/>
    </vehicle>
    <vehicle id="car_5_41" type="car_5__passenger" depart="80943.18">
        <route edges="-53396619#6 -53396619#5 201950247#4 201950247#5 201950247#6 201950247#7 201950247#8 315358242#3 315358251#1 136436466 4942389#0 4942389#1 202092675 315358245.27 315358248#0 315358253#0 315358253#1 315358253#2 168702039#1 32999434#0 201089423#0 201089423#2 32124744 32124743 285716192#0 285716192#0.83 201963535 104010354 -164051413 -653473569#5 -653473569#4 -653473569#2 -653473569#1 -653473569#0 -653473568#1 -653473568#0 -18813598#8 -18813598#7 -18813598#6 -18813598#1 25122731#0 30482614 30482615#1"/>
    </vehicle>
    <vehicle id="car_5_42" type="car_5__passenger" depart="81073.50">
        <route edges="25187896 -25145012#3 -25187889 25145014#1 25187891 -136728347#4 -201963533#5 -201963533#4 -201963533#1 -201963533#1.120 -201963533#1.145 -201963533#0 18809672#0 18809672#2 18809672#5 18809672#6"/>
    </vehicle>
    <vehicle id="car_5_43" type="car_5__passenger" depart="81203.82">
        <route edges="10425609#1 201963537#1 -164051413 -653473569#5 25145013#0 25145013#1 -233675413#8 -233675413#6 -233675413#3 -233675413#2 -233675413#1 -233675413#0 -136728347#4 -201963533#5 -201963533#4 -201963533#1 -201963533#1.120 -201963533#1.145 -201963533#0 10427692#0 10427692#2 10427692#3 10427692#4 10427692#5 10427692#6 10427692#7 10427692#7.50 10427692#8 -24634510#18 24634514#0"/>
    </vehicle>
    <vehicle id="car_5_44" type="car_5__passenger" depart="81334.15">
        <route edges="-40888351#2 40888354#0 40888354#1 40888354#2 53396619#3 53396619#4 -201950247#3"/>
    </vehicle>
    <vehicle id="car_5_45" type="car_5__passenger" depart="81464.47">
        <route edges="24634517#18 24634517#19 -24634517#16 -24634517#12 -24634517#8 -24634517#7 -24634517#5 -24634517#3 201963533#4 201963533#5 128906555 233675413#0 233675413#1 22716069#0 22716069#1 22716069#2 653473569#2 653473569#3 653473569#5 164051413 104010475#0 104012170 -32124745 -32124743 -32124744 -201089423#2 -201089423#1 -32999434#1 32999110#0 402600768#0 402600768#1 51857517#0 51857517#0.33 51857517#1 51857516#1 -266565295#5"/>
    </vehicle>
    <vehicle id="car_5_46" type="car_5__passenger" depart="81594.79">
        <route edges="128361102#0 285549250#0 10427692#0 10427692#2 10427692#3 10427692#4 10427692#5 10427692#6 10427692#7 10427692#7.50 10427692#8 201238726#0 201238726#0.117 201238726#1 201238730 176550249#0 176550249#1 176550249#2 176550249#3 176550249#4 201201950#0 201201950#1 201201950#2 201201950#3 -24634414#0 -40888350 -201950247#6 -201950247#5 -201950247#4 53396619#5 53396619#6 26677216#3"/>
    </vehicle>
    <vehicle id="car_5_47" type="car_5__passenger" depart="81725.11">
        <route edges="-24634413#0 201201950#3 201201950#4 386687239#0 386687239#1 202092676#0 -136436466 -315358251#1 -315358251#0 -315358242#2 -315358242#1 -315358242#0 -129379925"/>
    </vehicle>
    <vehicle id="car_5_48" type="car_5__passenger" depart="81855.43">
        <route edges="-224251774#0 224251776#0 -170018165#3 -170018165#2.164 -170018165#2.210 -170018165#1 -170018165#0 137133006#0 137133006#1 -201238726#1 -201238726#0 -201238726#0.98 -10427692#8 -10427692#7 -10427692#6 -10427692#5 -10427692#4 -10427692#3 -10427692#2 -10427692#1 201963533#0 201963533#1 201963533#4 201963533#5 128906555 233675413#0 233675413#1 22716069#0 22716069#1 25145012#5 25145012#6 25145012#7 104010354 124812857#0 201956819#0"/>
    </vehicle>
    <vehicle id="car_5_49" type="car_5__passenger" depart="81985.75">
        <route edges="-31860333#4 32395414#0 32395414#1 28111977#5 26642362#1 26642362#2 -22716073 22716072#4 -26642362#3 -26642362#2"/>
    </vehicle>
    <vehicle id="car_5_50" type="car_5__passenger" depart="82116.08">
        <route edges="-612075153#1 -612075153#0 399835085#0 399835085#1"/>
    </vehicle>
    <vehicle id="car_5_51" type="car_5__passenger" depart="82246.40">
        <route edges="-25145012#4 -25145012#3 -25145012#2 -25187895#1 -25187895#0 28111977#10 -653473568#0"/>
    </vehicle>
    <vehicle id="car_5_53" type="car_5__passenger" depart="82507.04">
        <route edges="-25187892 25145014#4 26642362#2 26642362#3 26642362#4 -201963533#5 -201963533#4 -201963533#1 -201963533#1.120 -201963533#1.145 -201963533#0 10427692#0 10427692#2 10427692#3 10427692#4 10427692#5 10427692#6 10427692#7 10427692#7.50 10427692#8 201238726#0 201238726#0.117 201238726#1 201238719#0 170018165#0 -224892361#8 137454133#0 137454133#1 137454133#2"/>
    </vehicle>
    <vehicle id="car_5_54" type="car_5__passenger" depart="82637.36">
        <route edges="10427692#7 10427692#7.50 10427692#8 -24634510#18 -24634510#15 -24634510#8 204588664#0 23436553#3 -22690205#3 22690206#0 -22879845"/>
    </vehicle>
    <vehicle id="car_5_55" type="car_5__passenger" depart="82767.68">
        <route edges="-32395352#1 201963522#2 201963522#3 201963522#4 -37681425#7 -37681425#6 -31860333#4 32395414#0 32395414#1 -28111977#4"/>
    </vehicle>
    <vehicle id="car_5_56" type="car_5__passenger" depart="82898.00">
        <route edges="25209894#1 -25145014#2 -25145014#1 -25145014#0 22716069#1 22716069#2 653473569#2 653473569#3 653473569#5 164051413 104010475#0 104012170 -32124745 -32124743 -32124744 -201089423#2 -201089423#1 -32999434#1 32999110#0 -315358253#2 -315358253#1 -315358253#0 -315358248#1 -315358245 -202092675.36 -4942389#1 -4942389#0 -136436466 -315358251#1 -315358251#0 -315358242#2 -315358242#1"/>
    </vehicle>
    <vehicle id="car_5_57" type="car_5__passenger" depart="83028.33">
        <route edges="224892339#0 315358255#0 -315358257#2 -315358257#0.26 -201089420#1 -201201945#8 -201201945#7 -201201945#6 -201201945#2 -201201945#1 -201201945#0 -201201945#0.78 -174800513 201201950#0 201201950#1 201201950#2 201201950#3 201201950#4 386687239#0 386687239#1 202092676#0 -136436466 -315358251#1 -315358251#0 -315358242#2 4942376"/>
    </vehicle>
    <vehicle id="car_5_58" type="car_5__passenger" depart="83158.65">
        <route edges="32124634 32124637#1 168702040#1 168702040#2 168702040#3 168702040#4 -315358253#2 -315358253#1 -315358253#0 -315358248#1 -315358245 -202092675.36 -4942389#1 -4942389#0 -136436466 386687242 23166741#0 23166741#2 23166741#5 201201953#0 201201953#2 -173203413#7 22724699#3 22724699#7 137132998 201143840 201234440 -379510292"/>
    </vehicle>
    <vehicle id="car_5_59" type="car_5__passenger" depart="83288.97">
        <route edges="201238718#0 -201238724 -24634505 160314346#0 24634506#0 24634506#1 -31395281"/>
    </vehicle>
    <vehicle id="car_5_60" type="car_5__passenger" depart="83419.29">
        <route edges="-37386279 -24634413#2 -24634413#1 -160314345#1 -160314345#0 -160314346#1 24634506#0 24634506#1 -31395281 31395281 -24634506#1 -24634506#0 160314346#1"/>
    </vehicle>
    <vehicle id="car_5_61" type="car_5__passenger" depart="83549.61">
        <route edges="25187893 28111977#9 28111977#10 653473568#1 653473569#0 653473569#1 653473569#2 653473569#3 653473569#5 164051413 104010475#0 104012170 -32124745 -32124743 -32124744 -201089423#2 -201089423#1 -32999434#1 32999110#0 -315358253#2 -315358253#1 -315358253#0 -315358248#1 -315358245 -202092675.36 -4942389#1 -4942389#0 -136436466 -315358251#1 -315358251#0 -315358242#2 -315358242#1 -315358242#0 -129379925 -40888351#6 -40888351#2 40888354#0 40888354#1"/>
    </vehicle>
    <vehicle id="car_5_63" type="car_5__passenger" depart="83810.25">
        <route edges="-54169231#1 -54169231#0 -26677214#3 -26677214#2 -26677213#5 136436468#1 -201201945#1 -201201945#0 -201201945#0.78 201201953#0 201201953#2 -173203413#7"/>
    </vehicle>
    <vehicle id="car_5_64" type="car_5__passenger" depart="83940.58">
        <route edges="-137454133#5 -137454133#1 -137454133#0 224892361#7 -170018165#0 137133006#0 137133006#1 -201238726#1 -201238726#0 -201238726#0.98 -10427692#8 -10427692#7 -10427692#6 -10427692#5 -10427692#4 -10427692#3 -10427692#2 -10427692#1 201963533#0 201963533#1 201963533#4 201963533#5 -26642362#5 -26642362#3 -26642362#2 -26642362#1 -26642362#0 -26642363 26642363 26642362#0 26642362#1 26642362#2"/>
    </vehicle>
    <vehicle id="car_5_65" type="car_5__passenger" depart="84070.90">
        <route edges="-201963522#5 -37681425#7 -37681425#6 -31860333#4 32395414#0 32395414#1 28111977#5 26642362#1 26642362#2 26642362#3 26642362#4 -201963533#5 -201963533#4 24634517#1 24634517#4 24634517#6 24634517#8 24634517#9"/>
    </vehicle>
    <vehicle id="car_5_66" type="car_5__passenger" depart="84201.22">
        <route edges="-32124743 -32124744 -201089423#2 -201089423#1 24693977#0 24693977#1 315392062#0 201238718#0 201238718#1 174800513 201201953#0 201201953#2 -173203413#7 22724699#3 40888356#0"/>
    </vehicle>
    <vehicle id="car_5_67" type="car_5__passenger" depart="84331.54">
        <route edges="272042143 23166741#0 23166741#2 23166741#5 201201953#0 201201953#2 201201953#4 201201953#10 201201953#12 176550246 -201238726#1 -201238726#0 -201238726#0.98 -10427692#8 -10427692#7 -10427692#6 -10427692#5 -10427692#4 -10427692#3 -10427692#2 -10427692#1 18809672#0 18809672#2 170425366#0 -18809672#6"/>
    </vehicle>
    <vehicle id="car_5_68" type="car_5__passenger" depart="84461.86">
        <route edges="-24634508 -24634507 -24634509#0 -22716549#6 -201089423#1 -32999434#1 32999110#0 -315358253#2 -315358253#1 -315358253#0 -315358248#1 -315358245 -202092675.36 -4942389#1 -4942389#0 -136436466 -315358251#1 -315358251#0 -315358242#2 -315358242#1 -315358242#0 -129379925 -129379918#1 -315358252#1 -129379922 -315358246 -129379920#1 -129379920#0 40888443"/>
    </vehicle>
    <vehicle id="car_5_70" type="car_5__passenger" depart="84722.51">
        <route edges="25145014#4 -26642362#1 -28111977#5 -28111977#4 -28111977#3 -32395464 -31860333#2 28111977#2"/>
    </vehicle>
    <vehicle id="car_5_71" type="car_5__passenger" depart="84852.83">
        <route edges="128361109#1 128361109#3 128361109#4 201238719#0 170018165#0 -224892361#8 -224892361#6 -224892361#2 -224892361#1 286646456#1 315358255#0 -315358257#2 -315358257#0.26 -201089420#1 -201201945#8 -201201945#7 -201201945#6 22724699#0 22724699#2 22724699#3 22724699#7 137132998"/>
    </vehicle>
    <vehicle id="car_5_72" type="car_5__passenger" depart="84983.15">
        <route edges="-201950250#0 -26677542#1 -26677542#0 -201950263#6 -25117391#2 -25117391#1 315358257#0 315358257#0.43 -315358255#4 -286646456#2 224892361#1 224892361#2 224892361#3 224892361#7 -170018165#0 137133006#0 137133006#1 -201238726#1 -201238726#0 -201238726#0.98 -10427692#8 -10427692#7 -10427692#6 -10427692#5 -10427692#4 -10427692#3 -10427692#2 -10427692#1 201963533#0 201963533#1 201963533#4 201963533#5 -26642362#5 -26642362#3 -26642362#2 -26642362#1 -28111977#5 -32395414#1"/>
    </vehicle>
    <vehicle id="car_5_73" type="car_5__passenger" depart="85113.47">
        <route edges="-22716072#3 -18809672#1 201963533#0 201963533#1 201963533#4 201963533#5 128906555 233675413#0 233675413#1 233675413#2 233675413#3 22690205#0 22690205#2 22690206#0 22690206#1 22690206#2"/>
    </vehicle>
    <vehicle id="car_5_74" type="car_5__passenger" depart="85243.79">
        <route edges="201238724 -201238718#0 -315392062#4 -24693977#1 -24693977#0 201089423#0 201089423#2 32124744 32124743 285716192#0 285716192#0.83 201963535 -104010328 25145013#1 -233675413#8 -233675413#6 -233675413#3 -233675413#2 -233675413#1"/>
    </vehicle>
    <vehicle id="car_5_75" type="car_5__passenger" depart="85374.11">
        <route edges="201950259#0 201950259#4 201950263#0 201950263#7 129379967#0 129379921#0 129379921#1 129379920#0 129379920#1 315358246 129379922 315358252#0 129379918#0 -40888351#6 -40888351#2 -40888351#0 -201950250#2"/>
    </vehicle>
    <vehicle id="car_5_76" type="car_5__passenger" depart="85504.43">
        <route edges="-201950263#10 -201950263#6 -25117391#2 -25117391#1 315358257#0 315358257#0.43 -315358255#4 -286646456#2 224892361#1 224892361#2 224892361#3 224892361#7 -170018165#0 137133006#0 137133006#1 -201238726#1 -201238726#0 -201238726#0.98 -10427692#8 -10427692#7 -10427692#6 -10427692#5 -10427692#4 -10427692#3 -10427692#2 -10427692#1 201963533#0 201963533#1 201963533#4 201963533#5 128906555 233675413#0"/>
    </vehicle>
    <vehicle id="car_5_77" type="car_5__passenger" depart="85634.76">
        <route edges="-93386922 -31860333#0 28111977#4 28111977#5 26642362#1 -25145014#4 -25145014#3 -25209894#1 25145012#0 25145012#1 25145012#2 25145012#3 25145012#4 22716069#2 653473569#2 653473569#3 653473569#5 164051413 104010475#0 104012170 -32124745 -32124743 -32124744 -201089423#2 -201089423#1 -32999434#1 -24634414#5 -24634414#4 24634415 -24634415 24634414#4 24634414#5 24634414#5.51 32999434#0"/>
    </vehicle>
    <vehicle id="car_5_78" type="car_5__passenger" depart="85765.08">
        <route edges="201950259#4 -25117391#2 -25117391#1 315358257#0 315358257#0.43 -315358255#4 -286646456#2 224892361#1 224892361#2 224892361#3 224892361#7 -170018165#0 137133006#0 137133006#1 -201238726#1 -201238726#0 -201238726#0.98 -24634510#18 -24634510#15 24634513#0 24634513#6"/>
    </vehicle>
    <vehicle id="car_5_79" type="car_5__passenger" depart="85895.40">
        <route edges="-224892339#3 224892361#3 224892361#7 -170018165#0 137133006#0 137133006#1 -201238726#1 -201238726#0 -201238726#0.98 -10427692#8 -10427692#7 -10427692#6 -10427692#5 -10427692#4 -10427692#3 -10427692#2 -10427692#1 18809672#0 18809672#2 18809672#5 -37681424#1 -37681424#0 37681425#7 201963522#5 201963522#6 25122731#0 30482614 30482615#1"/>
    </vehicle>
    <vehicle id="car_5_80" type="car_5__passenger" depart="86025.72">
        <route edges="-201201945#8 -40888359 201089420#0 315358257#0 315358257#0.43 -315358255#4 -286646456#2 224892361#1 224892361#2 224892361#3"/>
    </vehicle>
    <vehicle id="car_5_81" type="car_5__passenger" depart="86156.04">
        <route edges="315358254#0 -315358257#2 -315358257#0.26 -201089420#1 -201201945#8 -201201945#7 -201201945#6 -201201945#2 -201201945#1 -201201945#0 -201201945#0.78 -174800513 -201238718#1 -201238718#0 160314345#0 160314345#1 24634413#1 24634413#2 37386279"/>
    </vehicle>